! Blank file in which we can put "overrides" for parameters
NK = 50
#override USE_REGRIDDING = True
#override BULKMIXEDLAYER = False
COORD_FILE = "Layer_coord50.nc"
USE_STORED_SLOPES = True
USE_NEUTRAL_DIFFUSION = True
SIMPLE_TKE_TO_KD = True
REGRIDDING_COORDINATE_MODE = "Z*"
ALE_COORDINATE_CONFIG = "FILE:vgrid.nc,dz"
REMAPPING_SCHEME = "PPM_H4"
HMIX_FIXED = 0.5
CFL_TRUNCATE_RAMP_TIME = 7200.
Z_INIT_ALE_REMAPPING = True
ENERGETICS_SFC_PBL = True
USE_MLD_ITERATION = False
MASS_WEIGHT_IN_PRESSURE_GRADIENT = True
KVML = 0.0                      !   [m2 s-1] default = 1.0E-04
                                ! The kinematic viscosity in the mixed layer.  A typical value is ~1e-2 m2 s-1.
                                ! KVML is not used if BULKMIXEDLAYER is true.  The default is set by KV.
