! Blank file in which we can put "overrides" for parameters
NK = 50
#override USE_REGRIDDING = True
#override BULKMIXEDLAYER = False
COORD_FILE = "Layer_coord50.nc"
USE_STORED_SLOPES = True
USE_NEUTRAL_DIFFUSION = True
SIMPLE_TKE_TO_KD = True
REGRIDDING_COORDINATE_MODE = "Z*"
ALE_COORDINATE_CONFIG = "FILE:vgrid.nc,dz"
REMAPPING_SCHEME = "PPM_H4"
HMIX_FIXED = 0.5
CFL_TRUNCATE_RAMP_TIME = 7200.
Z_INIT_ALE_REMAPPING = True
ENERGETICS_SFC_PBL = True
USE_MLD_ITERATION = False
REMAP_UV_USING_OLD_ALG = True
Z_INIT_REMAP_OLD_ALG = True
MASS_WEIGHT_IN_PRESSURE_GRADIENT = True
