! This file was written by the model and records the debugging parameters used at run-time.
H_RESCALE_POWER = 0             !   [nondim] default = 0
                                ! An integer power of 2 that is used to rescale the model's
                                ! intenal units of thickness.  Valid values range from -300 to 300.
