! This file was written by the model and records the debugging parameters used at run-time.
