! Z* coordinate regridding + initialization
USE_REGRIDDING = True
REGRIDDING_COORDINATE_MODE = "Z*"
REMAPPING_SCHEME = "PQM_IH4IH3"
REMAP_UV_USING_OLD_ALG = True
