! Blank file in which we can put "overrides" for parameters
BUOY_CONFIG = "linear"
RESTOREBUOY = True
SST_NORTH = 25.0
SST_SOUTH = 25.0
