! This file was written by the model and records the non-default parameters used at run-time.

! === module MOM ===
BULKMIXEDLAYER = False          !   [Boolean] default = True
                                ! If true, use a Kraus-Turner-like bulk mixed layer with transitional buffer
                                ! layers.  Layers 1 through NKML+NKBL have variable densities. There must be at
                                ! least NKML+NKBL+1 layers if BULKMIXEDLAYER is true. BULKMIXEDLAYER can not be
                                ! used with USE_REGRIDDING. The default is influenced by ENABLE_THERMODYNAMICS.
DT = 3600.0                     !   [s]
                                ! The (baroclinic) dynamics time step.  The time-step that is actually used will
                                ! be an integer fraction of the forcing time-step (DT_FORCING in ocean-only mode
                                ! or the coupling timestep in coupled mode.)
DTBT_RESET_PERIOD = -1.0        !   [s] default = 3600.0
                                ! The period between recalculations of DTBT (if DTBT <= 0). If DTBT_RESET_PERIOD
                                ! is negative, DTBT is set based only on information available at
                                ! initialization.  If 0, DTBT will be set every dynamics time step. The default
                                ! is set by DT_THERM.  This is only used if SPLIT is true.
C_P = 3925.0                    !   [J kg-1 K-1] default = 3991.86795711963
                                ! The heat capacity of sea water, approximated as a constant. This is only used
                                ! if ENABLE_THERMODYNAMICS is true. The default value is from the TEOS-10
                                ! definition of conservative temperature.
DEFAULT_2018_ANSWERS = True     !   [Boolean] default = False
                                ! This sets the default value for the various _2018_ANSWERS parameters.
SAVE_INITIAL_CONDS = True       !   [Boolean] default = False
                                ! If true, write the initial conditions to a file given by IC_OUTPUT_FILE.
IC_OUTPUT_FILE = "GOLD_IC"      ! default = "MOM_IC"
                                ! The file into which to write the initial conditions.

! === module MOM_domains ===
REENTRANT_Y = True              !   [Boolean] default = False
                                ! If true, the domain is meridionally reentrant.
NIGLOBAL = 48                   !
                                ! The total number of thickness grid points in the x-direction in the physical
                                ! domain. With STATIC_MEMORY_ this is set in MOM_memory.h at compile time.
NJGLOBAL = 48                   !
                                ! The total number of thickness grid points in the y-direction in the physical
                                ! domain. With STATIC_MEMORY_ this is set in MOM_memory.h at compile time.

! === module MOM_fixed_initialization ===
INPUTDIR = "INPUT"              ! default = "."
                                ! The directory in which input files are found.

! === module MOM_grid_init ===
GRID_CONFIG = "cartesian"       !
                                ! A character string that determines the method for defining the horizontal
                                ! grid.  Current options are:
                                !     mosaic - read the grid from a mosaic (supergrid)
                                !              file set by GRID_FILE.
                                !     cartesian - use a (flat) Cartesian grid.
                                !     spherical - use a simple spherical grid.
                                !     mercator - use a Mercator spherical grid.
AXIS_UNITS = "k"                ! default = "degrees"
                                ! The units for the Cartesian axes. Valid entries are:
                                !     degrees - degrees of latitude and longitude
                                !     m - meters
                                !     k - kilometers
SOUTHLAT = 0.0                  !   [k]
                                ! The southern latitude of the domain or the equivalent starting value for the
                                ! y-axis.
LENLAT = 172.8                  !   [k]
                                ! The latitudinal or y-direction length of the domain.
LENLON = 172.8                  !   [k]
                                ! The longitudinal or x-direction length of the domain.
TOPO_CONFIG = "flat"            !
                                ! This specifies how bathymetry is specified:
                                !     file - read bathymetric information from the file
                                !       specified by (TOPO_FILE).
                                !     flat - flat bottom set to MAXIMUM_DEPTH.
                                !     bowl - an analytically specified bowl-shaped basin
                                !       ranging between MAXIMUM_DEPTH and MINIMUM_DEPTH.
                                !     spoon - a similar shape to 'bowl', but with an vertical
                                !       wall at the southern face.
                                !     halfpipe - a zonally uniform channel with a half-sine
                                !       profile in the meridional direction.
                                !     bbuilder - build topography from list of functions.
                                !     benchmark - use the benchmark test case topography.
                                !     Neverworld - use the Neverworld test case topography.
                                !     DOME - use a slope and channel configuration for the
                                !       DOME sill-overflow test case.
                                !     ISOMIP - use a slope and channel configuration for the
                                !       ISOMIP test case.
                                !     DOME2D - use a shelf and slope configuration for the
                                !       DOME2D gravity current/overflow test case.
                                !     Kelvin - flat but with rotated land mask.
                                !     seamount - Gaussian bump for spontaneous motion test case.
                                !     dumbbell - Sloshing channel with reservoirs on both ends.
                                !     shelfwave - exponential slope for shelfwave test case.
                                !     Phillips - ACC-like idealized topography used in the Phillips config.
                                !     dense - Denmark Strait-like dense water formation and overflow.
                                !     USER - call a user modified routine.
MINIMUM_DEPTH = 0.01            !   [m] default = 0.0
                                ! The minimum depth of the ocean.
MAXIMUM_DEPTH = 200.0           !   [m]
                                ! The maximum depth of the ocean.
ROTATION = "beta"               ! default = "2omegasinlat"
                                ! This specifies how the Coriolis parameter is specified:
                                !     2omegasinlat - Use twice the planetary rotation rate
                                !       times the sine of latitude.
                                !     betaplane - Use a beta-plane or f-plane.
                                !     USER - call a user modified routine.

! === module MOM_verticalGrid ===
! Parameters providing information about the vertical grid.
RHO_0 = 1000.0                  !   [kg m-3] default = 1035.0
                                ! The mean ocean density used with BOUSSINESQ true to calculate accelerations
                                ! and the mass for conservation properties, or with BOUSSINSEQ false to convert
                                ! some parameters from vertical units of m to kg m-2.
ANGSTROM = 0.0                  !   [m] default = 1.0E-10
                                ! The minimum layer thickness, usually one-Angstrom.
NK = 5                          !   [nondim]
                                ! The number of model layers.

! === module MOM_EOS ===
EQN_OF_STATE = "LINEAR"         ! default = "WRIGHT"
                                ! EQN_OF_STATE determines which ocean equation of state should be used.
                                ! Currently, the valid choices are "LINEAR", "UNESCO", "WRIGHT", "NEMO" and
                                ! "TEOS10". This is only used if USE_EOS is true.

! === module MOM_tracer_flow_control ===
USE_ADVECTION_TEST_TRACER = True !   [Boolean] default = False
                                ! If true, use the advection_test_tracer tracer package.

! === module advection_test_tracer ===
ADVECTION_TEST_X_ORIGIN = 43.2  !   [same as geoLon] default = 0.0
                                ! The x-coordinate of the center of the test-functions.
ADVECTION_TEST_Y_ORIGIN = 86.4  !   [same as geoLat] default = 0.0
                                ! The y-coordinate of the center of the test-functions.
ADVECTION_TEST_X_WIDTH = 21.6   !   [same as geoLon] default = 0.0
                                ! The x-width of the test-functions.
ADVECTION_TEST_Y_WIDTH = 21.6   !   [same as geoLat] default = 0.0
                                ! The y-width of the test-functions.

! === module MOM_coord_initialization ===
COORD_CONFIG = "ts_ref"         ! default = "none"
                                ! This specifies how layers are to be defined:
                                !     ALE or none - used to avoid defining layers in ALE mode
                                !     file - read coordinate information from the file
                                !       specified by (COORD_FILE).
                                !     BFB - Custom coords for buoyancy-forced basin case
                                !       based on SST_S, T_BOT and DRHO_DT.
                                !     linear - linear based on interfaces not layers
                                !     layer_ref - linear based on layer densities
                                !     ts_ref - use reference temperature and salinity
                                !     ts_range - use range of temperature and salinity
                                !       (T_REF and S_REF) to determine surface density
                                !       and GINT calculate internal densities.
                                !     gprime - use reference density (RHO_0) for surface
                                !       density and GINT calculate internal densities.
                                !     ts_profile - use temperature and salinity profiles
                                !       (read from COORD_FILE) to set layer densities.
                                !     USER - call a user modified routine.
T_REF = 20.0                    !   [degC]
                                ! The initial temperature of the lightest layer.
GINT = 7.89E-04                 !   [m s-2]
                                ! The reduced gravity across internal interfaces.

! === module MOM_state_initialization ===
TS_CONFIG = "fit"               !
                                ! A string that determines how the initial tempertures and salinities are
                                ! specified for a new run:
                                !     file - read velocities from the file specified
                                !       by (TS_FILE).
                                !     fit - find the temperatures that are consistent with
                                !       the layer densities and salinity S_REF.
                                !     TS_profile - use temperature and salinity profiles
                                !       (read from TS_FILE) to set layer densities.
                                !     benchmark - use the benchmark test case T & S.
                                !     linear - linear in logical layer space.
                                !     DOME2D - 2D DOME initialization.
                                !     ISOMIP - ISOMIP initialization.
                                !     adjustment2d - 2d lock exchange T/S ICs.
                                !     sloshing - sloshing mode T/S ICs.
                                !     seamount - no motion test with seamount ICs.
                                !     dumbbell - sloshing channel ICs.
                                !     rossby_front - a mixed layer front in thermal wind balance.
                                !     SCM_CVMix_tests - used in the SCM CVMix tests.
                                !     USER - call a user modified routine.
VELOCITY_CONFIG = "uniform"     ! default = "zero"
                                ! A string that determines how the initial velocities are specified for a new
                                ! run:
                                !     file - read velocities from the file specified
                                !       by (VELOCITY_FILE).
                                !     zero - the fluid is initially at rest.
                                !     uniform - the flow is uniform (determined by
                                !       parameters INITIAL_U_CONST and INITIAL_V_CONST).
                                !     rossby_front - a mixed layer front in thermal wind balance.
                                !     soliton - Equatorial Rossby soliton.
                                !     USER - call a user modified routine.
INITIAL_U_CONST = 0.2           !   [m s-1] default = 0.0
                                ! A initial uniform value for the zonal flow.
INITIAL_V_CONST = 0.2           !   [m s-1] default = 0.0
                                ! A initial uniform value for the meridional flow.

! === module MOM_diag_mediator ===

! === module MOM_lateral_mixing_coeffs ===

! === module MOM_set_visc ===
BOTTOMDRAGLAW = False           !   [Boolean] default = True
                                ! If true, the bottom stress is calculated with a drag law of the form
                                ! c_drag*|u|*u. The velocity magnitude may be an assumed value or it may be
                                ! based on the actual velocity in the bottommost HBBL, depending on LINEAR_DRAG.
HBBL = 1.0E-08                  !   [m]
                                ! The thickness of a bottom boundary layer with a viscosity of KVBBL if
                                ! BOTTOMDRAGLAW is not defined, or the thickness over which near-bottom
                                ! velocities are averaged for the drag law if BOTTOMDRAGLAW is defined but
                                ! LINEAR_DRAG is not.
BBL_THICK_MIN = 0.1             !   [m] default = 0.0
                                ! The minimum bottom boundary layer thickness that can be used with
                                ! BOTTOMDRAGLAW. This might be Kv/(cdrag*drag_bg_vel) to give Kv as the minimum
                                ! near-bottom viscosity.
KV = 1.0E-04                    !   [m2 s-1]
                                ! The background kinematic viscosity in the interior. The molecular value, ~1e-6
                                ! m2 s-1, may be used.
KV_BBL_MIN = 1.0E-06            !   [m2 s-1] default = 1.0E-04
                                ! The minimum viscosities in the bottom boundary layer.

! === module MOM_thickness_diffuse ===

! === module MOM_dynamics_split_RK2 ===

! === module MOM_continuity ===

! === module MOM_continuity_PPM ===

! === module MOM_CoriolisAdv ===
BOUND_CORIOLIS = True           !   [Boolean] default = False
                                ! If true, the Coriolis terms at u-points are bounded by the four estimates of
                                ! (f+rv)v from the four neighboring v-points, and similarly at v-points.  This
                                ! option would have no effect on the SADOURNY Coriolis scheme if it were
                                ! possible to use centered difference thickness fluxes.
KE_SCHEME = "KE_GUDONOV"        ! default = "KE_ARAKAWA"
                                ! KE_SCHEME selects the discretization for acceleration due to the kinetic
                                ! energy gradient. Valid values are:
                                !    KE_ARAKAWA, KE_SIMPLE_GUDONOV, KE_GUDONOV

! === module MOM_PressureForce ===

! === module MOM_PressureForce_AFV ===

! === module MOM_hor_visc ===
LAPLACIAN = True                !   [Boolean] default = False
                                ! If true, use a Laplacian horizontal viscosity.
KH = 0.01                       !   [m2 s-1] default = 0.0
                                ! The background Laplacian horizontal viscosity.
BOUND_KH = False                !   [Boolean] default = True
                                ! If true, the Laplacian coefficient is locally limited to be stable.
BIHARMONIC = False              !   [Boolean] default = True
                                ! If true, use a biharmonic horizontal viscosity. BIHARMONIC may be used with
                                ! LAPLACIAN.

! === module MOM_vert_friction ===
HMIX_FIXED = 1.0E-10            !   [m]
                                ! The prescribed depth over which the near-surface viscosity and diffusivity are
                                ! elevated when the bulk mixed layer is not used.
KVBBL = 0.0                     !   [m2 s-1] default = 1.0E-04
                                ! The kinematic viscosity in the benthic boundary layer. A typical value is
                                ! ~1e-2 m2 s-1. KVBBL is not used if BOTTOMDRAGLAW is true.  The default is set
                                ! by KV.
MAXVEL = 10.0                   !   [m s-1] default = 3.0E+08
                                ! The maximum velocity allowed before the velocity components are truncated.

! === module MOM_barotropic ===
BOUND_BT_CORRECTION = True      !   [Boolean] default = False
                                ! If true, the corrective pseudo mass-fluxes into the barotropic solver are
                                ! limited to values that require less than maxCFL_BT_cont to be accommodated.
NONLINEAR_BT_CONTINUITY = True  !   [Boolean] default = False
                                ! If true, use nonlinear transports in the barotropic continuity equation.  This
                                ! does not apply if USE_BT_CONT_TYPE is true.
BT_PROJECT_VELOCITY = True      !   [Boolean] default = False
                                ! If true, step the barotropic velocity first and project out the velocity
                                ! tendency by 1+BEBT when calculating the transport.  The default (false) is to
                                ! use a predictor continuity step to find the pressure field, and then to do a
                                ! corrector continuity step using a weighted average of the old and new
                                ! velocities, with weights of (1-BEBT) and BEBT.
BEBT = 0.2                      !   [nondim] default = 0.1
                                ! BEBT determines whether the barotropic time stepping uses the forward-backward
                                ! time-stepping scheme or a backward Euler scheme. BEBT is valid in the range
                                ! from 0 (for a forward-backward treatment of nonrotating gravity waves) to 1
                                ! (for a backward Euler treatment). In practice, BEBT must be greater than about
                                ! 0.05.
DTBT = -0.9                     !   [s or nondim] default = -0.98
                                ! The barotropic time step, in s. DTBT is only used with the split explicit time
                                ! stepping. To set the time step automatically based the maximum stable value
                                ! use 0, or a negative value gives the fraction of the stable value. Setting
                                ! DTBT to 0 is the same as setting it to -0.98. The value of DTBT that will
                                ! actually be used is an integer fraction of DT, rounding down.

! === module MOM_diagnostics ===

! === module MOM_diabatic_driver ===
! The following parameters are used for diabatic processes.

! === module MOM_entrain_diffusive ===
MAX_ENT_IT = 20                 ! default = 5
                                ! The maximum number of iterations that may be used to calculate the interior
                                ! diapycnal entrainment.
TOLERANCE_ENT = 1.0E-05         !   [m] default = 0.0
                                ! The tolerance with which to solve for entrainment values.

! === module MOM_set_diffusivity ===

! === module MOM_bkgnd_mixing ===
! Adding static vertical background mixing coefficients

! === module MOM_diabatic_aux ===
! The following parameters are used for auxiliary diabatic processes.

! === module MOM_opacity ===

! === module MOM_tracer_advect ===

! === module MOM_tracer_hor_diff ===

! === module MOM_sum_output ===
MAXTRUNC = 10                   !   [truncations save_interval-1] default = 0
                                ! The run will be stopped, and the day set to a very large value if the velocity
                                ! is truncated more than MAXTRUNC times between energy saves.  Set MAXTRUNC to 0
                                ! to stop if there is any truncation of velocities.
DATE_STAMPED_STDOUT = False     !   [Boolean] default = True
                                ! If true, use dates (not times) in messages to stdout
ENERGYSAVEDAYS = 0.5            !   [days] default = 1.0
                                ! The interval in units of TIMEUNIT between saves of the energies of the run and
                                ! other globally summed diagnostics.

! === module MOM_surface_forcing ===
VARIABLE_WINDS = False          !   [Boolean] default = True
                                ! If true, the winds vary in time after the initialization.
VARIABLE_BUOYFORCE = False      !   [Boolean] default = True
                                ! If true, the buoyancy forcing varies in time after the initialization of the
                                ! model.
BUOY_CONFIG = "NONE"            ! default = "zero"
                                ! The character string that indicates how buoyancy forcing is specified. Valid
                                ! options include (file), (zero), (linear), (USER), (BFB) and (NONE).

! === module MOM_main (MOM_driver) ===
DAYMAX = 2.0                    !   [days]
                                ! The final time of the whole simulation, in units of TIMEUNIT seconds.  This
                                ! also sets the potential end time of the present run segment if the end time is
                                ! not set via ocean_solo_nml in input.nml.
RESTART_CONTROL = -1            ! default = 1
                                ! An integer whose bits encode which restart files are written. Add 2 (bit 1)
                                ! for a time-stamped file, and odd (bit 0) for a non-time-stamped file. A
                                ! non-time-stamped restart file is saved at the end of the run segment for any
                                ! non-negative value.
RESTINT = 100.0                 !   [days] default = 0.0
                                ! The interval between saves of the restart file in units of TIMEUNIT.  Use 0
                                ! (the default) to not save incremental restart files at all.

! === module MOM_write_cputime ===
MAXCPU = 2.88E+04               !   [wall-clock seconds] default = -1.0
                                ! The maximum amount of cpu time per processor for which MOM should run before
                                ! saving a restart file and quitting with a return value that indicates that a
                                ! further run is required to complete the simulation. If automatic restarts are
                                ! not desired, use a negative value for MAXCPU.  MAXCPU has units of wall-clock
                                ! seconds, so the actual CPU time used is larger by a factor of the number of
                                ! processors used.
