! Continuous isopycnal mode + initialization
USE_REGRIDDING = True
REGRIDDING_COORDINATE_MODE = "Z*" 
REMAPPING_SCHEME = "PPM_IH4"
