! These parameters are missing from the common MOM_input parameters
#override SCM_L2_DTDZ = 0.0
BUOY_CONFIG = const
WIND_CONFIG = const
GUST_CONST = 0.0
CONST_WIND_TAUX = 0.1
CONST_WIND_TAUY = 0.0
SENSIBLE_HEAT_FLUX = 100.
