! Z* coordinate regridding + initialization
USE_REGRIDDING = True
REGRIDDING_COORDINATE_MODE = "SIGMA"
REMAPPING_SCHEME = "PQM_IH4IH3"
