! Terrain-following coordinates
USE_REGRIDDING = True
REGRIDDING_COORDINATE_MODE = "SIGMA" 
REMAPPING_SCHEME = "PPM_IH4"
MIN_THICKNESS = 0.1
