! This file was written by the model and records the layout parameters used at run-time.
