! These parameters are missing from the common MOM_input parameters
SCM_DTDZ = 0.01
WIND_CONFIG = "zero"
BUOY_CONFIG = "zero"
GUST_CONST = 0.05
