F_0 = 1.03130958e-04
WIND_CONFIG = "const"
CONST_WIND_TAUX = 0.036
CONST_WIND_TAUY = 0.0
BUOY_CONFIG = "const"
SENSIBLE_HEAT_FLUX = 25.0
