! This file was written by the model and records all non-layout or debugging parameters used at run-time.

! === module MOM ===

! === module MOM_unit_scaling ===
! Parameters for doing unit scaling of variables.
SPLIT = True                    !   [Boolean] default = True
                                ! Use the split time stepping if true.
CALC_RHO_FOR_SEA_LEVEL = False  !   [Boolean] default = False
                                ! If true, the in-situ density is used to calculate the effective sea level that
                                ! is returned to the coupler. If false, the Boussinesq parameter RHO_0 is used.
ENABLE_THERMODYNAMICS = True    !   [Boolean] default = True
                                ! If true, Temperature and salinity are used as state variables.
USE_EOS = True                  !   [Boolean] default = True
                                ! If true,  density is calculated from temperature and salinity with an equation
                                ! of state.  If USE_EOS is true, ENABLE_THERMODYNAMICS must be true as well.
DIABATIC_FIRST = False          !   [Boolean] default = False
                                ! If true, apply diabatic and thermodynamic processes, including buoyancy
                                ! forcing and mass gain or loss, before stepping the dynamics forward.
USE_CONTEMP_ABSSAL = False      !   [Boolean] default = False
                                ! If true, the prognostics T&S are the conservative temperature and absolute
                                ! salinity. Care should be taken to convert them to potential temperature and
                                ! practical salinity before exchanging them with the coupler and/or reporting
                                ! T&S diagnostics.
ADIABATIC = False               !   [Boolean] default = False
                                ! There are no diapycnal mass fluxes if ADIABATIC is true. This assumes that KD
                                ! = KDML = 0.0 and that there is no buoyancy forcing, but makes the model faster
                                ! by eliminating subroutine calls.
DO_DYNAMICS = True              !   [Boolean] default = True
                                ! If False, skips the dynamics calls that update u & v, as well as the gravity
                                ! wave adjustment to h. This may be a fragile feature, but can be useful during
                                ! development
OFFLINE_TRACER_MODE = False     !   [Boolean] default = False
                                ! If true, barotropic and baroclinic dynamics, thermodynamics are all bypassed
                                ! with all the fields necessary to integrate the tracer advection and diffusion
                                ! equation are read in from files stored from a previous integration of the
                                ! prognostic model. NOTE: This option only used in the ocean_solo_driver.
USE_REGRIDDING = True           !   [Boolean] default = False
                                ! If True, use the ALE algorithm (regridding/remapping). If False, use the
                                ! layered isopycnal algorithm.
BULKMIXEDLAYER = False          !   [Boolean] default = False
                                ! If true, use a Kraus-Turner-like bulk mixed layer with transitional buffer
                                ! layers.  Layers 1 through NKML+NKBL have variable densities. There must be at
                                ! least NKML+NKBL+1 layers if BULKMIXEDLAYER is true. BULKMIXEDLAYER can not be
                                ! used with USE_REGRIDDING. The default is influenced by ENABLE_THERMODYNAMICS.
THICKNESSDIFFUSE = True         !   [Boolean] default = False
                                ! If true, interface heights are diffused with a coefficient of KHTH.
THICKNESSDIFFUSE_FIRST = True   !   [Boolean] default = False
                                ! If true, do thickness diffusion before dynamics. This is only used if
                                ! THICKNESSDIFFUSE is true.
BATHYMETRY_AT_VEL = False       !   [Boolean] default = False
                                ! If true, there are separate values for the basin depths at velocity points.
                                ! Otherwise the effects of topography are entirely determined from thickness
                                ! points.
DT = 3600.0                     !   [s]
                                ! The (baroclinic) dynamics time step.  The time-step that is actually used will
                                ! be an integer fraction of the forcing time-step (DT_FORCING in ocean-only mode
                                ! or the coupling timestep in coupled mode.)
DT_THERM = 7200.0               !   [s] default = 3600.0
                                ! The thermodynamic and tracer advection time step. Ideally DT_THERM should be
                                ! an integer multiple of DT and less than the forcing or coupling time-step,
                                ! unless THERMO_SPANS_COUPLING is true, in which case DT_THERM can be an integer
                                ! multiple of the coupling timestep.  By default DT_THERM is set to DT.
THERMO_SPANS_COUPLING = False   !   [Boolean] default = False
                                ! If true, the MOM will take thermodynamic and tracer timesteps that can be
                                ! longer than the coupling timestep. The actual thermodynamic timestep that is
                                ! used in this case is the largest integer multiple of the coupling timestep
                                ! that is less than or equal to DT_THERM.
HMIX_SFC_PROP = 1.0             !   [m] default = 1.0
                                ! If BULKMIXEDLAYER is false, HMIX_SFC_PROP is the depth over which to average
                                ! to find surface properties like SST and SSS or density (but not surface
                                ! velocities).
HMIX_UV_SFC_PROP = 0.0          !   [m] default = 0.0
                                ! If BULKMIXEDLAYER is false, HMIX_UV_SFC_PROP is the depth over which to
                                ! average to find surface flow properties, SSU, SSV. A non-positive value
                                ! indicates no averaging.
HFREEZE = -1.0                  !   [m] default = -1.0
                                ! If HFREEZE > 0, melt potential will be computed. The actual depth over which
                                ! melt potential is computed will be min(HFREEZE, OBLD), where OBLD is the
                                ! boundary layer depth. If HFREEZE <= 0 (default), melt potential will not be
                                ! computed.
INTERPOLATE_P_SURF = False      !   [Boolean] default = False
                                ! If true, linearly interpolate the surface pressure over the coupling time
                                ! step, using the specified value at the end of the step.
DTBT_RESET_PERIOD = 0.0         !   [s] default = 7200.0
                                ! The period between recalculations of DTBT (if DTBT <= 0). If DTBT_RESET_PERIOD
                                ! is negative, DTBT is set based only on information available at
                                ! initialization.  If 0, DTBT will be set every dynamics time step. The default
                                ! is set by DT_THERM.  This is only used if SPLIT is true.
FRAZIL = True                   !   [Boolean] default = False
                                ! If true, water freezes if it gets too cold, and the accumulated heat deficit
                                ! is returned in the surface state.  FRAZIL is only used if
                                ! ENABLE_THERMODYNAMICS is true.
DO_GEOTHERMAL = True            !   [Boolean] default = False
                                ! If true, apply geothermal heating.
BOUND_SALINITY = True           !   [Boolean] default = False
                                ! If true, limit salinity to being positive. (The sea-ice model may ask for more
                                ! salt than is available and drive the salinity negative otherwise.)
MIN_SALINITY = 0.01             !   [PPT] default = 0.01
                                ! The minimum value of salinity when BOUND_SALINITY=True. The default is 0.01
                                ! for backward compatibility but ideally should be 0.
C_P = 3925.0                    !   [J kg-1 K-1] default = 3991.86795711963
                                ! The heat capacity of sea water, approximated as a constant. This is only used
                                ! if ENABLE_THERMODYNAMICS is true. The default value is from the TEOS-10
                                ! definition of conservative temperature.
USE_PSURF_IN_EOS = False        !   [Boolean] default = False
                                ! If true, always include the surface pressure contributions in equation of
                                ! state calculations.
P_REF = 2.0E+07                 !   [Pa] default = 2.0E+07
                                ! The pressure that is used for calculating the coordinate density.  (1 Pa = 1e4
                                ! dbar, so 2e7 is commonly used.) This is only used if USE_EOS and
                                ! ENABLE_THERMODYNAMICS are true.
FIRST_DIRECTION = 0             ! default = 0
                                ! An integer that indicates which direction goes first in parts of the code that
                                ! use directionally split updates, with even numbers (or 0) used for x- first
                                ! and odd numbers used for y-first.
CHECK_BAD_SURFACE_VALS = True   !   [Boolean] default = False
                                ! If true, check the surface state for ridiculous values.
BAD_VAL_SSH_MAX = 20.0          !   [m] default = 20.0
                                ! The value of SSH above which a bad value message is triggered, if
                                ! CHECK_BAD_SURFACE_VALS is true.
BAD_VAL_SSS_MAX = 45.0          !   [PPT] default = 45.0
                                ! The value of SSS above which a bad value message is triggered, if
                                ! CHECK_BAD_SURFACE_VALS is true.
BAD_VAL_SST_MAX = 45.0          !   [deg C] default = 45.0
                                ! The value of SST above which a bad value message is triggered, if
                                ! CHECK_BAD_SURFACE_VALS is true.
BAD_VAL_SST_MIN = -2.1          !   [deg C] default = -2.1
                                ! The value of SST below which a bad value message is triggered, if
                                ! CHECK_BAD_SURFACE_VALS is true.
BAD_VAL_COLUMN_THICKNESS = 0.0  !   [m] default = 0.0
                                ! The value of column thickness below which a bad value message is triggered, if
                                ! CHECK_BAD_SURFACE_VALS is true.
DEFAULT_2018_ANSWERS = True     !   [Boolean] default = True
                                ! This sets the default value for the various _2018_ANSWERS parameters.
SURFACE_2018_ANSWERS = True     !   [Boolean] default = True
                                ! If true, use expressions for the surface properties that recover the answers
                                ! from the end of 2018. Otherwise, use more appropriate expressions that differ
                                ! at roundoff for non-Boussinesq cases.
SAVE_INITIAL_CONDS = True       !   [Boolean] default = False
                                ! If true, write the initial conditions to a file given by IC_OUTPUT_FILE.
IC_OUTPUT_FILE = "MOM_IC"       ! default = "MOM_IC"
                                ! The file into which to write the initial conditions.
WRITE_GEOM = 1                  ! default = 1
                                ! If =0, never write the geometry and vertical grid files. If =1, write the
                                ! geometry and vertical grid files only for a new simulation. If =2, always
                                ! write the geometry and vertical grid files. Other values are invalid.
ENSEMBLE_OCEAN = False          !   [Boolean] default = False
                                ! If False, The model is being run in serial mode as a single realization. If
                                ! True, The current model realization is part of a larger ensemble and at the
                                ! end of step MOM, we will perform a gather of the ensemble members for
                                ! statistical evaluation and/or data assimilation.

! === module MOM_domains ===
REENTRANT_X = False             !   [Boolean] default = True
                                ! If true, the domain is zonally reentrant.
REENTRANT_Y = False             !   [Boolean] default = False
                                ! If true, the domain is meridionally reentrant.
TRIPOLAR_N = False              !   [Boolean] default = False
                                ! Use tripolar connectivity at the northern edge of the domain.  With
                                ! TRIPOLAR_N, NIGLOBAL must be even.
NIGLOBAL = 23                   !
                                ! The total number of thickness grid points in the x-direction in the physical
                                ! domain. With STATIC_MEMORY_ this is set in MOM_memory.h at compile time.
NJGLOBAL = 14                   !
                                ! The total number of thickness grid points in the y-direction in the physical
                                ! domain. With STATIC_MEMORY_ this is set in MOM_memory.h at compile time.

! === module MOM_hor_index ===
! Sets the horizontal array index types.

! === module MOM_fixed_initialization ===
INPUTDIR = "INPUT"              ! default = "."
                                ! The directory in which input files are found.

! === module MOM_grid_init ===
GRID_CONFIG = "mosaic"          !
                                ! A character string that determines the method for defining the horizontal
                                ! grid.  Current options are:
                                !     mosaic - read the grid from a mosaic (supergrid)
                                !              file set by GRID_FILE.
                                !     cartesian - use a (flat) Cartesian grid.
                                !     spherical - use a simple spherical grid.
                                !     mercator - use a Mercator spherical grid.
GRID_FILE = "ocean_hgrid.nc"    !
                                ! Name of the file from which to read horizontal grid data.
USE_TRIPOLAR_GEOLONB_BUG = True !   [Boolean] default = True
                                ! If true, use older code that incorrectly sets the longitude in some points
                                ! along the tripolar fold to be off by 360 degrees.
TOPO_CONFIG = "file"            !
                                ! This specifies how bathymetry is specified:
                                !     file - read bathymetric information from the file
                                !       specified by (TOPO_FILE).
                                !     flat - flat bottom set to MAXIMUM_DEPTH.
                                !     bowl - an analytically specified bowl-shaped basin
                                !       ranging between MAXIMUM_DEPTH and MINIMUM_DEPTH.
                                !     spoon - a similar shape to 'bowl', but with an vertical
                                !       wall at the southern face.
                                !     halfpipe - a zonally uniform channel with a half-sine
                                !       profile in the meridional direction.
                                !     benchmark - use the benchmark test case topography.
                                !     Neverland - use the Neverland test case topography.
                                !     DOME - use a slope and channel configuration for the
                                !       DOME sill-overflow test case.
                                !     ISOMIP - use a slope and channel configuration for the
                                !       ISOMIP test case.
                                !     DOME2D - use a shelf and slope configuration for the
                                !       DOME2D gravity current/overflow test case.
                                !     Kelvin - flat but with rotated land mask.
                                !     seamount - Gaussian bump for spontaneous motion test case.
                                !     dumbbell - Sloshing channel with reservoirs on both ends.
                                !     shelfwave - exponential slope for shelfwave test case.
                                !     Phillips - ACC-like idealized topography used in the Phillips config.
                                !     dense - Denmark Strait-like dense water formation and overflow.
                                !     USER - call a user modified routine.
TOPO_FILE = "topog.nc"          ! default = "topog.nc"
                                ! The file from which the bathymetry is read.
TOPO_VARNAME = "depth"          ! default = "depth"
                                ! The name of the bathymetry variable in TOPO_FILE.
TOPO_EDITS_FILE = ""            ! default = ""
                                ! The file from which to read a list of i,j,z topography overrides.
MAXIMUM_DEPTH = 6000.0          !   [m]
                                ! The maximum depth of the ocean.
MINIMUM_DEPTH = 0.5             !   [m] default = 0.0
                                ! If MASKING_DEPTH is unspecified, then anything shallower than MINIMUM_DEPTH is
                                ! assumed to be land and all fluxes are masked out. If MASKING_DEPTH is
                                ! specified, then all depths shallower than MINIMUM_DEPTH but deeper than
                                ! MASKING_DEPTH are rounded to MINIMUM_DEPTH.

! === module MOM_open_boundary ===
! Controls where open boundaries are located, what kind of boundary condition to impose, and what data to apply,
! if any.
OBC_NUMBER_OF_SEGMENTS = 0      ! default = 0
                                ! The number of open boundary segments.
MASKING_DEPTH = -9999.0         !   [m] default = -9999.0
                                ! The depth below which to mask points as land points, for which all fluxes are
                                ! zeroed out. MASKING_DEPTH is ignored if negative.
CHANNEL_CONFIG = "global_1deg"  ! default = "none"
                                ! A parameter that determines which set of channels are
                                ! restricted to specific  widths.  Options are:
                                !     none - All channels have the grid width.
                                !     global_1deg - Sets 16 specific channels appropriate
                                !       for a 1-degree model, as used in CM2G.
                                !     list - Read the channel locations and widths from a
                                !       text file, like MOM_channel_list in the MOM_SIS
                                !       test case.
                                !     file - Read open face widths everywhere from a
                                !       NetCDF file on the model grid.
ROTATION = "2omegasinlat"       ! default = "2omegasinlat"
                                ! This specifies how the Coriolis parameter is specified:
                                !     2omegasinlat - Use twice the planetary rotation rate
                                !       times the sine of latitude.
                                !     betaplane - Use a beta-plane or f-plane.
                                !     USER - call a user modified routine.
OMEGA = 7.2921E-05              !   [s-1] default = 7.2921E-05
                                ! The rotation rate of the earth.
GRID_ROTATION_ANGLE_BUGS = True !   [Boolean] default = True
                                ! If true, use an older algorithm to calculate the sine and cosines needed
                                ! rotate between grid-oriented directions and true north and east.  Differences
                                ! arise at the tripolar fold.
PARALLEL_RESTARTFILES = False   !   [Boolean] default = False
                                ! If true, each processor writes its own restart file, otherwise a single
                                ! restart file is generated

! === module MOM_verticalGrid ===
! Parameters providing information about the vertical grid.
G_EARTH = 9.8                   !   [m s-2] default = 9.8
                                ! The gravitational acceleration of the Earth.
RHO_0 = 1035.0                  !   [kg m-3] default = 1035.0
                                ! The mean ocean density used with BOUSSINESQ true to calculate accelerations
                                ! and the mass for conservation properties, or with BOUSSINSEQ false to convert
                                ! some parameters from vertical units of m to kg m-2.
BOUSSINESQ = True               !   [Boolean] default = True
                                ! If true, make the Boussinesq approximation.
ANGSTROM = 1.0E-10              !   [m] default = 1.0E-10
                                ! The minimum layer thickness, usually one-Angstrom.
H_TO_M = 1.0                    !   [m H-1] default = 1.0
                                ! A constant that translates the model's internal units of thickness into m.
NK = 50                         !   [nondim]
                                ! The number of model layers.

! === module MOM_tracer_registry ===

! === module MOM_EOS ===
EQN_OF_STATE = "WRIGHT"         ! default = "WRIGHT"
                                ! EQN_OF_STATE determines which ocean equation of state should be used.
                                ! Currently, the valid choices are "LINEAR", "UNESCO", "WRIGHT", "NEMO" and
                                ! "TEOS10". This is only used if USE_EOS is true.
EOS_QUADRATURE = False          !   [Boolean] default = False
                                ! If true, always use the generic (quadrature) code code for the integrals of
                                ! density.
TFREEZE_FORM = "LINEAR"         ! default = "LINEAR"
                                ! TFREEZE_FORM determines which expression should be used for the freezing
                                ! point.  Currently, the valid choices are "LINEAR", "MILLERO_78", "TEOS10"
TFREEZE_S0_P0 = 0.0             !   [deg C] default = 0.0
                                ! When TFREEZE_FORM=LINEAR, this is the freezing potential temperature at S=0,
                                ! P=0.
DTFREEZE_DS = -0.054            !   [deg C PSU-1] default = -0.054
                                ! When TFREEZE_FORM=LINEAR, this is the derivative of the freezing potential
                                ! temperature with salinity.
DTFREEZE_DP = 0.0               !   [deg C Pa-1] default = 0.0
                                ! When TFREEZE_FORM=LINEAR, this is the derivative of the freezing potential
                                ! temperature with pressure.

! === module MOM_restart ===
RESTARTFILE = "MOM.res"         ! default = "MOM.res"
                                ! The name-root of the restart file.
LARGE_FILE_SUPPORT = True       !   [Boolean] default = True
                                ! If true, use the file-size limits with NetCDF large file support (4Gb),
                                ! otherwise the limit is 2Gb.
MAX_FIELDS = 100                ! default = 100
                                ! The maximum number of restart fields that can be used.
RESTART_CHECKSUMS_REQUIRED = True !   [Boolean] default = True
                                ! If true, require the restart checksums to match and error out otherwise. Users
                                ! may want to avoid this comparison if for example the restarts are made from a
                                ! run with a different mask_table than the current run, in which case the
                                ! checksums will not match and cause crash.

! === module MOM_tracer_flow_control ===
USE_USER_TRACER_EXAMPLE = False !   [Boolean] default = False
                                ! If true, use the USER_tracer_example tracer package.
USE_DOME_TRACER = False         !   [Boolean] default = False
                                ! If true, use the DOME_tracer tracer package.
USE_ISOMIP_TRACER = False       !   [Boolean] default = False
                                ! If true, use the ISOMIP_tracer tracer package.
USE_RGC_TRACER = False          !   [Boolean] default = False
                                ! If true, use the RGC_tracer tracer package.
USE_IDEAL_AGE_TRACER = True     !   [Boolean] default = False
                                ! If true, use the ideal_age_example tracer package.
USE_REGIONAL_DYES = False       !   [Boolean] default = False
                                ! If true, use the regional_dyes tracer package.
USE_OIL_TRACER = False          !   [Boolean] default = False
                                ! If true, use the oil_tracer tracer package.
USE_ADVECTION_TEST_TRACER = True !   [Boolean] default = False
                                ! If true, use the advection_test_tracer tracer package.
USE_OCMIP2_CFC = False          !   [Boolean] default = False
                                ! If true, use the MOM_OCMIP2_CFC tracer package.
USE_generic_tracer = False      !   [Boolean] default = False
                                ! If true and _USE_GENERIC_TRACER is defined as a preprocessor macro, use the
                                ! MOM_generic_tracer packages.
USE_PSEUDO_SALT_TRACER = False  !   [Boolean] default = False
                                ! If true, use the pseudo salt tracer, typically run as a diagnostic.
USE_BOUNDARY_IMPULSE_TRACER = False !   [Boolean] default = False
                                ! If true, use the boundary impulse tracer.
USE_DYED_OBC_TRACER = False     !   [Boolean] default = False
                                ! If true, use the dyed_obc_tracer tracer package.

! === module ideal_age_example ===
DO_IDEAL_AGE = True             !   [Boolean] default = True
                                ! If true, use an ideal age tracer that is set to 0 age in the mixed layer and
                                ! ages at unit rate in the interior.
DO_IDEAL_VINTAGE = False        !   [Boolean] default = False
                                ! If true, use an ideal vintage tracer that is set to an exponentially
                                ! increasing value in the mixed layer and is conserved thereafter.
DO_IDEAL_AGE_DATED = False      !   [Boolean] default = False
                                ! If true, use an ideal age tracer that is everywhere 0 before
                                ! IDEAL_AGE_DATED_START_YEAR, but the behaves like the standard ideal age tracer
                                ! - i.e. is set to 0 age in the mixed layer and ages at unit rate in the
                                ! interior.
AGE_IC_FILE = ""                ! default = ""
                                ! The file in which the age-tracer initial values can be found, or an empty
                                ! string for internal initialization.
AGE_IC_FILE_IS_Z = False        !   [Boolean] default = False
                                ! If true, AGE_IC_FILE is in depth space, not layer space
TRACERS_MAY_REINIT = False      !   [Boolean] default = False
                                ! If true, tracers may go through the initialization code if they are not found
                                ! in the restart files.  Otherwise it is a fatal error if the tracers are not
                                ! found in the restart files of a restarted run.

! === module advection_test_tracer ===
ADVECTION_TEST_X_ORIGIN = 19.5  !   [same as geoLon] default = 0.0
                                ! The x-coordinate of the center of the test-functions.
ADVECTION_TEST_Y_ORIGIN = 60.5  !   [same as geoLat] default = 0.0
                                ! The y-coordinate of the center of the test-functions.
ADVECTION_TEST_X_WIDTH = 1.0    !   [same as geoLon] default = 0.0
                                ! The x-width of the test-functions.
ADVECTION_TEST_Y_WIDTH = 1.0    !   [same as geoLat] default = 0.0
                                ! The y-width of the test-functions.
ADVECTION_TEST_TRACER_IC_FILE = "" ! default = ""
                                ! The name of a file from which to read the initial conditions for the tracers,
                                ! or blank to initialize them internally.
SPONGE = False                  !   [Boolean] default = False
                                ! If true, sponges may be applied anywhere in the domain. The exact location and
                                ! properties of those sponges are specified from MOM_initialization.F90.

! === module MOM_coord_initialization ===
COORD_CONFIG = "file"           !
                                ! This specifies how layers are to be defined:
                                !     ALE or none - used to avoid defining layers in ALE mode
                                !     file - read coordinate information from the file
                                !       specified by (COORD_FILE).
                                !     BFB - Custom coords for buoyancy-forced basin case
                                !       based on SST_S, T_BOT and DRHO_DT.
                                !     linear - linear based on interfaces not layers