! This file was written by the model and records the debugging parameters used at run-time.
REPORT_UNUSED_PARAMS = False    !   [Boolean] default = False
                                ! If true, report any parameter lines that are not used in the run.
FATAL_UNUSED_PARAMS = False     !   [Boolean] default = False
                                ! If true, kill the run if there are any unused parameters.
