! This file was written by the model and records the debugging parameters used at run-time.

! === module MOM_file_parser ===
REPORT_UNUSED_PARAMS = True     !   [Boolean] default = True
                                ! If true, report any parameter lines that are not used in the run.
FATAL_UNUSED_PARAMS = False     !   [Boolean] default = False
                                ! If true, kill the run if there are any unused parameters.
