REENTRANT_Y = True              !   [Boolean] default = False
				! If true, the domain is meridionally reentrant.
NIGLOBAL = 2                    !
				! The total number of thickness grid points in the
				! x-direction in the physical domain. With STATIC_MEMORY_
				! this is set in MOM_memory.h at compile time.
NJGLOBAL = 2                    !
				! The total number of thickness grid points in the
				! y-direction in the physical domain. With STATIC_MEMORY_
				! this is set in MOM_memory.h at compile time.
NIHALO = 2                      ! default = 4
				! The number of halo points on each side in the
				! x-direction.  With STATIC_MEMORY_ this is set as NIHALO_
				! in MOM_memory.h at compile time; without STATIC_MEMORY_
				! the default is NIHALO_ in MOM_memory.h (if defined) or 2.
NJHALO = 2                      ! default = 4
				! The number of halo points on each side in the
				! y-direction.  With STATIC_MEMORY_ this is set as NJHALO_
				! in MOM_memory.h at compile time; without STATIC_MEMORY_
				! the default is NJHALO_ in MOM_memory.h (if defined) or 2.

! === module MOM_grid ===
! Parameters providing information about the vertical grid.
G_EARTH = 9.80616               !   [m s-2] default = 9.8
				! The gravitational acceleration of the Earth.
RHO_0 = 1000.000                !   [kg m-3] default = 1035.0
				! The mean ocean density used with BOUSSINESQ true to
				! calculate accelerations and the mass for conservation
				! properties, or with BOUSSINSEQ false to convert some
				! parameters from vertical units of m to kg m-2.

! === module MOM_verticalGrid ===
! Parameters providing information about the vertical grid.

! === module MOM ===
SPLIT = False                   !   [Boolean] default = True
				! Use the split time stepping if true.
BULKMIXEDLAYER = False          !   [Boolean] default = True
				! If true, use a Kraus-Turner-like bulk mixed layer
				! with transitional buffer layers.  Layers 1 through
				! NKML+NKBL have variable densities. There must be at
				! least NKML+NKBL+1 layers if BULKMIXEDLAYER is true.
				! The default is the same setting as ENABLE_THERMODYNAMICS.
USE_REGRIDDING = True           !   [Boolean] default = False
				! If True, use the ALE algorithm (regridding/remapping).
				! If False, use the layered isopycnal algorithm.
DT = 1200.0                     !   [s]
				! The (baroclinic) dynamics time step.  The time-step that
				! is actually used will be an integer fraction of the
				! forcing time-step (DT_FORCING in ocean-only mode or the
				! coupling timestep in coupled mode.)
C_P = 4200.0                    !   [J kg-1 K-1] default = 3991.86795711963
				! The heat capacity of sea water, approximated as a
				! constant. This is only used if ENABLE_THERMODYNAMICS is
				! true. The default value is from the TEOS-10 definition
				! of conservative temperature.
SAVE_INITIAL_CONDS = True       !   [Boolean] default = False
				! If true, write the initial conditions to a file given
				! by IC_OUTPUT_FILE.

! === module MOM_tracer_registry ===
EQN_OF_STATE = "LINEAR"         ! default = "WRIGHT"
				! EQN_OF_STATE determines which ocean equation of state
				! should be used.  Currently, the valid choices are
				! "LINEAR", "UNESCO", and "WRIGHT".
				! This is only used if USE_EOS is true.
DRHO_DT = -0.2                  !   [kg m-3 K-1] default = -0.2
				! When EQN_OF_STATE=LINEAR,
				! this is the partial derivative of density with
				! temperature.
DRHO_DS = 0.75                  !   [kg m-3 PSU-1] default = 0.8
				! When EQN_OF_STATE=LINEAR,
				! this is the partial derivative of density with
				! salinity.

! === module MOM_tracer_flow_control ===

! === module MOM_grid_init ===
GRID_CONFIG = "cartesian"       !
				! A character string that determines the method for
				! defining the horizontal grid.  Current options are:
				!     mosaic - read the grid from a mosaic (supergrid)
				!              file set by GRID_FILE.
				!     cartesian - use a (flat) Cartesian grid.
				!     spherical - use a simple spherical grid.
				!     mercator - use a Mercator spherical grid.
SOUTHLAT = 27.836               !   [degrees]
				! The southern latitude of the domain or the equivalent
				! starting value for the y-axis.
LENLAT = 2.0                    !   [degrees]
				! The latitudinal or y-direction length of the domain.
LENLON = 2.0                    !   [degrees]
				! The longitudinal or x-direction length of the domain.
TOPO_CONFIG = "flat"            !
				! This specifies how bathymetry is specified:
				!     file - read bathymetric information from the file
				!       specified by (TOPO_FILE).
				!     flat - flat bottom set to MAXIMUM_DEPTH.
				!     bowl - an analytically specified bowl-shaped basin
				!       ranging between MAXIMUM_DEPTH and MINIMUM_DEPTH.
				!     spoon - a similar shape to 'bowl', but with an vertical
				!       wall at the southern face.
				!     halfpipe - a zonally uniform channel with a half-sine
				!       profile in the meridional direction.
				!     benchmark - use the benchmark test case topography.
				!     DOME - use a slope and channel configuration for the
				!       DOME sill-overflow test case.
				!     DOME2D - use a shelf and slope configuration for the
				!       DOME2D gravity current/overflow test case.
				!     seamount - Gaussian bump for spontaneous motion test case.
				!     Phillips - ACC-like idealized topography used in the Phillips config.
				!     USER - call a user modified routine.
COORD_CONFIG = "none"           !
				! This specifies how layers are to be defined:
				!     file - read coordinate information from the file
				!       specified by (COORD_FILE).
				!     linear - linear based on interfaces not layesrs.
				!     ts_ref - use reference temperature and salinity
				!     ts_range - use range of temperature and salinity
				!       (T_REF and S_REF) to determine surface density
				!       and GINT calculate internal densities.
				!     gprime - use reference density (RHO_0) for surface
				!       density and GINT calculate internal densities.
				!     ts_profile - use temperature and salinity profiles
				!       (read from COORD_FILE) to set layer densities.
				!     USER - call a user modified routine.
ROTATION = "betaplane"          ! default = "2omegasinlat"
				! This specifies how the Coriolis parameter is specified:
				!     2omegasinlat - Use twice the planetary rotation rate
				!       times the sine of latitude.
				!     betaplane - Use a beta-plane or f-plane.
				!     USER - call a user modified routine.
REGRIDDING_COORDINATE_MODE = "Z*" ! default = "LAYER"
				! Coordinate mode for vertical regridding.
				! Choose among the following possibilities:
				!  LAYER - Isopycnal or stacked shallow water layers
				!  Z*    - stetched geopotential z*
				!  SIGMA - terrain following coordinates
				!  RHO   - continuous isopycnal
THICKNESS_CONFIG = "coord"      !
				! A string that determines how the initial layer
				! thicknesses are specified for a new run:
				!     file - read interface heights from the file specified
				!     thickness_file - read thicknesses from the file specified
				!       by (THICKNESS_FILE).
				!     coord - determined by ALE coordinate.
				!     uniform - uniform thickness layers evenly distributed
				!       between the surface and MAXIMUM_DEPTH.
				!     DOME - use a slope and channel configuration for the
				!       DOME sill-overflow test case.
				!     benchmark - use the benchmark test case thicknesses.
				!     search - search a density profile for the interface
				!       densities. This is not yet implemented.
				!     circle_obcs - the circle_obcs test case is used.
				!     DOME2D - 2D version of DOME initialization.
				!     adjustment2d - TBD AJA.
				!     sloshing - TBD AJA.
				!     seamount - TBD AJA.
				!     rossby_front - a mixed layer front in thermal wind balance.
				!     USER - call a user modified routine.
TS_CONFIG = "SCM_CVMix_tests"   !
				! A string that determines how the initial tempertures
				! and salinities are specified for a new run:
				!     file - read velocities from the file specified
				!       by (TS_FILE).
				!     fit - find the temperatures that are consistent with
				!       the layer densities and salinity S_REF.
				!     TS_profile - use temperature and salinity profiles
				!       (read from TS_FILE) to set layer densities.
				!     benchmark - use the benchmark test case T & S.
				!     linear - linear in logical layer space.
				!     DOME2D - 2D DOME initialization.
				!     adjustment2d - TBD AJA.
				!     sloshing - TBD AJA.
				!     seamount - TBD AJA.
				!     rossby_front - a mixed layer front in thermal wind balance.
				!     SCM_ideal_hurr - used in the SCM idealized hurricane test.
				!     USER - call a user modified routine.

! === module MOM_set_visc ===
HBBL = 10.0                     !   [m]
				! The thickness of a bottom boundary layer with a
				! viscosity of KVBBL if BOTTOMDRAGLAW is not defined, or
				! the thickness over which near-bottom velocities are
				! averaged for the drag law if BOTTOMDRAGLAW is defined
				! but LINEAR_DRAG is not.
CDRAG = 0.0                     !   [nondim] default = 0.003
				! CDRAG is the drag coefficient relating the magnitude of
				! the velocity field to the bottom stress. CDRAG is only
				! used if BOTTOMDRAGLAW is defined.
DRAG_BG_VEL = 0.1               !   [m s-1] default = 0.0
				! DRAG_BG_VEL is either the assumed bottom velocity (with
				! LINEAR_DRAG) or an unresolved  velocity that is
				! combined with the resolved velocity to estimate the
				! velocity magnitude.  DRAG_BG_VEL is only used when
				! BOTTOMDRAGLAW is defined.
BBL_THICK_MIN = 0.1             !   [m] default = 0.0
				! The minimum bottom boundary layer thickness that can be
				! used with BOTTOMDRAGLAW. This might be
				! Kv / (cdrag * drag_bg_vel) to give Kv as the minimum
				! near-bottom viscosity.
UPWIND_1ST_CONTINUITY = True    !   [Boolean] default = False
				! If true, CONTINUITY_PPM becomes a 1st-order upwind
				! continuity solver.  This scheme is highly diffusive
				! but may be useful for debugging or in single-column
				! mode where its minimal stensil is useful.
ETA_TOLERANCE = 1.0E-06         !   [m] default = 2.0E-08
				! The tolerance for the differences between the
				! barotropic and baroclinic estimates of the sea surface
				! height due to the fluxes through each face.  The total
				! tolerance for SSH is 4 times this value.  The default
				! is 0.5*NK*ANGSTROM, and this should not be set less x
				! than about 10^-15*MAXIMUM_DEPTH.
ETA_TOLERANCE_AUX = 0.001       !   [m] default = 1.0E-06
				! The tolerance for free-surface height discrepancies
				! between the barotropic solution and the sum of the
				! layer thicknesses when calculating the auxiliary
				! corrected velocities. By default, this is the same as
				! ETA_TOLERANCE, but can be made larger for efficiency.
CORIOLIS_EN_DIS = True          !   [Boolean] default = False
				! If true, two estimates of the thickness fluxes are used
				! to estimate the Coriolis term, and the one that
				! dissipates energy relative to the other one is used.
BOUND_CORIOLIS = True           !   [Boolean] default = False
				! If true, the Coriolis terms at u-points are bounded by
				! the four estimates of (f+rv)v from the four neighboring
				! v-points, and similarly at v-points.  This option is
				! always effectively false with CORIOLIS_EN_DIS defined and
				! CORIOLIS_SCHEME set to SADOURNY75_ENERGY.

! === module MOM_hor_visc ===
BIHARMONIC = False              !   [Boolean] default = True
				! If true, use a biharmonic horizontal viscosity.
				! BIHARMONIC may be used with LAPLACIAN.

! === module MOM_vert_friction ===
U_TRUNC_FILE = "U_velocity_truncations" ! default = ""
				! The absolute path to a file into which the accelerations
				! leading to zonal velocity truncations are written.
				! Undefine this for efficiency if this diagnostic is not
				! needed.
V_TRUNC_FILE = "V_velocity_truncations" ! default = ""
				! The absolute path to a file into which the accelerations
				! leading to meridional velocity truncations are written.
				! Undefine this for efficiency if this diagnostic is not
				! needed.
HARMONIC_VISC = True            !   [Boolean] default = False
				! If true, use the harmonic mean thicknesses for
				! calculating the vertical viscosity.
HMIX_FIXED = 0.01               !   [m]
				! The prescribed depth over which the near-surface
				! viscosity and diffusivity are elevated when the bulk
				! mixed layer is not used.
MAXVEL = 6.0                    !   [m s-1] default = 3.0E+08
				! The maximum velocity allowed before the velocity
				! components are truncated.
KV = 0.0                        !   [m2 s-1]
				! The background kinematic viscosity in the interior.
						 ! The molecular value, ~1e-6 m2 s-1, may be used.


! === module MOM_diabatic_driver ===
! The following parameters are used for diabatic processes.
RECLAIM_FRAZIL = False          !   [Boolean] default = True
				! If true, try to use any frazil heat deficit to cool any
				! overlying layers down to the freezing point, thereby
				! avoiding the creation of thin ice when the SST is above
				! the freezing point.
KD = 0.                         !   [m2 s-1]
				! The background diapycnal diffusivity of density in the
				! interior. Zero or the molecular value, ~1e-7 m2 s-1,
				! may be used.


! Turning off all mixing schemes
USE_KPP = False
ENERGETICS_SFC_PBL = False


! === module MOM_entrain_diffusive ===
MAX_ENT_IT = 20                 ! default = 5
				! The maximum number of iterations that may be used to
				! calculate the interior diapycnal entrainment.
TOLERANCE_ENT = 1.0E-05         !   [m] default = 1.0E-08
				! The tolerance with which to solve for entrainment values.

! === module MOM_regularize_layers ===
HMIX_MIN = 2.0                  !   [m] default = 0.0
				! The minimum mixed layer depth if the mixed layer depth
				! is determined dynamically.

! === module MOM_opacity ===
EXP_OPACITY_SCHEME = "DOUBLE_EXP"
PEN_SW_SCALE = 1.0
PEN_SW_SCALE_2ND = 17.0
SW_1ST_EXP_RATIO = 0.67
PEN_SW_FRAC  = 1.0
PEN_SW_NBANDS = 2               ! default = 1
				! The number of bands of penetrating shortwave radiation.

! === module MOM_tracer_hor_diff ===
KHTR = 600.0                    !   [m2 s-1] default = 0.0
				! The background along-isopycnal tracer diffusivity.

! === module MOM_surface_forcing ===
VARIABLE_WINDS = False          !   [Boolean] default = True
				! If true, the winds vary in time after the initialization.
FLUXCONST = 0.5                 !   [m day-1]
				! The constant that relates the restoring surface fluxes
				! to the relative surface anomalies (akin to a piston
				! velocity).  Note the non-MKS units.

! === module MOM_sum_output ===
MAXTRUNC = 5000                 !   [truncations save_interval-1] default = 0
				! The run will be stopped, and the day set to a very
				! large value if the velocity is truncated more than
				! MAXTRUNC times between energy saves.  Set MAXTRUNC to 0
				! to stop if there is any truncation of velocities.
DATE_STAMPED_STDOUT = False     !   [Boolean] default = True
				! If true, use dates (not times) in messages to stdout
MAXCPU = 2.88E+04               !   [wall-clock seconds] default = -1.0
				! The maximum amount of cpu time per processor for which
				! MOM should run before saving a restart file and
				! quitting with a return value that indicates that a
				! further run is required to complete the simulation.
				! If automatic restarts are not desired, use a negative
				! value for MAXCPU.  MAXCPU has units of wall-clock
				! seconds, so the actual CPU time used is larger by a
				! factor of the number of processors used.

! === module MOM_main (MOM_driver) ===
DAYMAX = 0.5                    !   [days]
				! The final time of the whole simulation, in units of
				! TIMEUNIT seconds.  This also sets the potential end
				! time of the present run segment if the end time is
				! not set via ocean_solo_nml in input.nml.
RESTART_CONTROL = 0             ! default = 1
				! An integer whose bits encode which restart files are
				! written. Add 2 (bit 1) for a time-stamped file, and odd
				! (bit 0) for a non-time-stamped file. A non-time-stamped
				! restart file is saved at the end of the run segment
				! for any non-negative value.
RESTINT = 3650.0                !   [days] default = 0.0
				! The interval between saves of the restart file in units
				! of TIMEUNIT.  Use 0 (the default) to not save
				! incremental restart files at all.
ENERGYSAVEDAYS = 0.25           !   [days] default = 1200.0
				! The interval in units of TIMEUNIT between saves of the
				! energies of the run and other globally summed diagnostics.
