! These parameters are missing from the common MOM_input parameters
BUOY_CONFIG = "zero"
WIND_CONFIG = "const"
GUST_CONST = 0.0
CONST_WIND_TAUX = 0.1
CONST_WIND_TAUY = 0.0
