!REGRID_TIME_SCALE = 86400.
!REGRID_COMPRESSIBILITY_FRACTION = 0.01
! Blank file in which we can put "overrides" for parameters
NK = 50
#override USE_REGRIDDING = True
#override BULKMIXEDLAYER = False
!#override MIXEDLAYER_RESTRAT = False
#override COORD_FILE = "Layer_coord50.nc"
USE_STORED_SLOPES = True
USE_NEUTRAL_DIFFUSION = True
SIMPLE_TKE_TO_KD = True
REGRIDDING_COORDINATE_MODE = "HYCOM1"
ALE_COORDINATE_CONFIG = "HYBRID:hycom1_50.nc,sigma2,dz"
HMIX_FIXED = 0.5
CFL_TRUNCATE_RAMP_TIME = 7200.
Z_INIT_ALE_REMAPPING = True
ENERGETICS_SFC_PBL = True
!VERBOSITY=9
!Z_INIT_REMAPPING_SCHEME = PPM_IH4
Z_INIT_REMAP_GENERAL = True
Z_INIT_REMAP_FULL_COLUMN = True
REMAP_AFTER_INITIALIZATION = False
REGRID_TIME_SCALE = 86400.0
