! This MOM_override file demonstrates the use of a HyCOM-like coordinate.
!REGRID_TIME_SCALE = 86400.

NK = 50
#override USE_REGRIDDING = True
#override BULKMIXEDLAYER = False
!#override MIXEDLAYER_RESTRAT = False
COORD_FILE = "Layer_coord50.nc"
USE_STORED_SLOPES = True
USE_NEUTRAL_DIFFUSION = True
SIMPLE_TKE_TO_KD = True
REGRIDDING_COORDINATE_MODE = "HYCOM1"
REMAPPING_SCHEME = "PPM_H4"

MAXIMUM_INT_DEPTH_CONFIG = "FNC1:5,12000,1.0,.125"
! These 2 lines go together in place of the line above.
! REGRID_COMPRESSIBILITY_FRACTION = 0.01
! MAXIMUM_INT_DEPTH_CONFIG = "FNC1:5,8000,1.0,.125"

ALE_COORDINATE_CONFIG = "HYBRID:hycom1_50.nc,sigma2,dz"
HMIX_FIXED = 0.5
CFL_TRUNCATE_RAMP_TIME = 7200.
Z_INIT_ALE_REMAPPING = True
ENERGETICS_SFC_PBL = True
USE_MLD_ITERATION = False
!VERBOSITY=9
!Z_INIT_REMAPPING_SCHEME = PPM_IH4
Z_INIT_REMAP_GENERAL = True
Z_INIT_REMAP_FULL_COLUMN = True
REMAP_AFTER_INITIALIZATION = False
REGRID_TIME_SCALE = 86400.0
REMAP_UV_USING_OLD_ALG = True
Z_INIT_REMAP_OLD_ALG = True
MASS_WEIGHT_IN_PRESSURE_GRADIENT = True
