/* This input file provides the adjustable run-time parameters for version 6 of
   the Modular Ocean Model (MOM6), a numerical ocean model developed at NOAA-GFDL.
   Where appropriate, parameters use usually given in MKS units.

   This particular file is for the example in idealized_hurricane.

   This MOM_input file typically contains only the non-default values that are
   needed to reproduce this example.  A full list of parameters for this example
   can be found in the corresponding MOM_parameter_doc.all file which is
   generated by the model at run-time. */

NIHALO = 4
NJHALO = 4
NIGLOBAL = 300
NJGLOBAL = 200

REENTRANT_Y = False
REENTRANT_X = False

NK = 80
INPUTDIR = "INPUT" 

SPLIT = True
DTBT = 30.0
DT = 300.0
DT_THERM = 300.0

USE_REGRIDDING = True
BULKMIXEDLAYER = False
EQN_OF_STATE = "LINEAR"

COORD_CONFIG = "none"
GRID_CONFIG = "cartesian"
AXIS_UNITS = "km"
SOUTHLAT = 0.0
LENLAT = 2000.0
LENLON = 3000.0
TOPO_CONFIG = "flat"
MAXIMUM_DEPTH = 4000.0
REGRIDDING_COORDINATE_MODE = "Z*"
ALE_COORDINATE_CONFIG = "FILE:vgrid.nc,dz"
THICKNESS_CONFIG = "coord"
ROTATION = "betaplane"
F_0 = 6.8103E-05
TS_CONFIG = "SCM_CVMix_tests"
SCM_TEMP_MLD = 32.0             !   [m] default = 0.0
                                ! Initial temp mixed layer depth
SCM_L1_TEMP = 29.25             !   [C] default = 20.0
                                ! Layer 1 surface temperature
SCM_L2_TEMP = 29.25             !   [C] default = 20.0
                                ! Layer 2 surface temperature

VARIABLE_WINDS = True
BUOY_CONFIG = const
SENSIBLE_HEAT_FLUX = 0.0
WIND_CONFIG = "ideal_hurr"
IDL_HURR_RHO_AIR = 1.2
IDL_HURR_AMBIENT_PRESSURE = 1.012E+05
IDL_HURR_CENTRAL_PRESSURE = 9.68E+04
IDL_HURR_RAD_MAX_WIND = 5.0E+04
IDL_HURR_MAX_WIND = 50.0
IDL_HURR_TRAN_SPEED = 5.0
IDL_HURR_TRAN_DIR = 180.0
IDL_HURR_Y0 = 1000.0e3
IDL_HURR_X0 = 2500.0e3
IDL_HURR_SCM_BR_BENCH = True

LAPLACIAN = True
AH_VEL_SCALE = 0.01
SMAGORINSKY_AH = True
SMAG_BI_CONST = 0.06

MIXEDLAYER_RESTRAT = False
FOX_KEMPER_ML_RESTRAT_COEF = 1.0
MLE_FRONT_LENGTH = 500.0
MLE_USE_PBL_MLD = False
MLE_MLD_DECAY_TIME = 2.592E+06

HBBL = 10.0
HMIX_FIXED = 0.01

USE_KPP = True
RI_CRIT = 0.25
KPP_IS_ADDITIVE = True
MATCH_TECHNIQUE = "SimpleShapes"
INTERP_TYPE = "quadratic"
USE_JACKSON_PARAM = True
VERTEX_SHEAR = True
KV = 1.0e-6
KD = 1.0e-7

ENERGETICS_SFC_PBL = False
EPBL_IS_ADDITIVE = False


DT_FORCING = 300.0
DAYMAX = 0.1
RESTART_CONTROL = 3
ENERGYSAVEDAYS = 0.1