/* This input file provides the adjustable run-time parameters for version 6 of
   the Modular Ocean Model (MOM6), a numerical ocean model developed at NOAA-GFDL.
   Where appropriate, parameters use usually given in MKS units.

   This particular file is for the example in idealized_hurricane.

   This MOM_input file typically contains only the non-default values that are
   needed to reproduce this example.  A full list of parameters for this example
   can be found in the corresponding MOM_parameter_doc.all file which is
   generated by the model at run-time. */

! === module MOM ===
SPLIT = True                    !   [Boolean] default = True
				! Use the split time stepping if true.
USE_REGRIDDING = True           !   [Boolean] default = False
				! If True, use the ALE algorithm (regridding/remapping).
				! If False, use the layered isopycnal algorithm.

DT = 300.0                      !   [s]
				! The (baroclinic) dynamics time step.  The time-step that
				! is actually used will be an integer fraction of the
				! forcing time-step (DT_FORCING in ocean-only mode or the
				! coupling timestep in coupled mode.)
DT_THERM = 300.0                !   [s] default = 300.0
				! The thermodynamic and tracer advection time step.
				! Ideally DT_THERM should be an integer multiple of DT
				! and less than the forcing or coupling time-step, unless
				! THERMO_SPANS_COUPLING is true, in which case DT_THERM
				! can be an integer multiple of the coupling timestep.  By
				! default DT_THERM is set to DT.

! === module MOM_main (MOM_driver) ===
DT_FORCING = 300.0              !   [s] default = 300.0
				! The time step for changing forcing, coupling with other
				! components, or potentially writing certain diagnostics.
				! The default value is given by DT.
DAYMAX = 0.05                   !   [days]
				! The final time of the whole simulation, in units of
				! TIMEUNIT seconds.  This also sets the potential end
				! time of the present run segment if the end time is
				! not set via ocean_solo_nml in input.nml.
RESTART_CONTROL = 3             ! default = 1
				! An integer whose bits encode which restart files are
				! written. Add 2 (bit 1) for a time-stamped file, and odd
				! (bit 0) for a non-time-stamped file. A non-time-stamped
				! restart file is saved at the end of the run segment
				! for any non-negative value.
! === module MOM_sum_output ===
ENERGYSAVEDAYS = 0.05           !   [days] default = 1.0
				! The interval in units of TIMEUNIT between saves of the
				! energies of the run and other globally summed diagnostics.


! === module MOM_domains ===
NIGLOBAL = 300                  !
				! The total number of thickness grid points in the
				! x-direction in the physical domain. With STATIC_MEMORY_
				! this is set in MOM_memory.h at compile time.
NJGLOBAL = 180                  !
				! The total number of thickness grid points in the
				! y-direction in the physical domain. With STATIC_MEMORY_
				! this is set in MOM_memory.h at compile time.
REENTRANT_X = False             !   [Boolean] default = True
				! If true, the domain is zonally reentrant.
REENTRANT_Y = False             !   [Boolean] default = False
				! If true, the domain is meridionally reentrant.

! === module MOM_verticalGrid ===
! Parameters providing information about the vertical grid.
NK = 80                         !   [nondim]
				! The number of model layers.

! === module MOM_fixed_initialization ===
INPUTDIR = "INPUT"              ! default = "."
				! The directory in which input files are found.


! === module MOM_grid_init ===
GRID_CONFIG = "cartesian"       !
				! A character string that determines the method for
				! defining the horizontal grid.  Current options are:
				!     mosaic - read the grid from a mosaic (supergrid)
				!              file set by GRID_FILE.
				!     cartesian - use a (flat) Cartesian grid.
				!     spherical - use a simple spherical grid.
				!     mercator - use a Mercator spherical grid.
AXIS_UNITS = "km"               ! default = "degrees"
				! The units for the Cartesian axes. Valid entries are:
				!     degrees - degrees of latitude and longitude
				!     m - meters
				!     k - kilometers
SOUTHLAT = 0.0                  !   [km]
				! The southern latitude of the domain or the equivalent
				! starting value for the y-axis.
LENLAT = 1800.0                 !   [km]
				! The latitudinal or y-direction length of the domain.
WESTLON = 0.0                   !   [km] default = 0.0
				! The western longitude of the domain or the equivalent
				! starting value for the x-axis.
LENLON = 3000.0                 !   [km]
				! The longitudinal or x-direction length of the domain.
TOPO_CONFIG = "flat"            !
				! This specifies how bathymetry is specified:
				!     file - read bathymetric information from the file
				!       specified by (TOPO_FILE).
				!     flat - flat bottom set to MAXIMUM_DEPTH.
				!     bowl - an analytically specified bowl-shaped basin
				!       ranging between MAXIMUM_DEPTH and MINIMUM_DEPTH.
				!     spoon - a similar shape to 'bowl', but with an vertical
				!       wall at the southern face.
				!     halfpipe - a zonally uniform channel with a half-sine
				!       profile in the meridional direction.
				!     benchmark - use the benchmark test case topography.
				!     Neverland - use the Neverland test case topography.
				!     DOME - use a slope and channel configuration for the
				!       DOME sill-overflow test case.
				!     ISOMIP - use a slope and channel configuration for the
				!       ISOMIP test case.
				!     DOME2D - use a shelf and slope configuration for the
				!       DOME2D gravity current/overflow test case.
				!     Kelvin - flat but with rotated land mask.
				!     seamount - Gaussian bump for spontaneous motion test case.
				!     dumbbell - Sloshing channel with reservoirs on both ends.
				!     shelfwave - exponential slope for shelfwave test case.
				!     Phillips - ACC-like idealized topography used in the Phillips config.
				!     dense - Denmark Strait-like dense water formation and overflow.
				!     USER - call a user modified routine.
MINIMUM_DEPTH = 0.0             !   [m] default = 0.0
				! The minimum depth of the ocean.
MAXIMUM_DEPTH = 4000.0          !   [m]
				! The maximum depth of the ocean.
ROTATION = "betaplane"          ! default = "2omegasinlat"
				! This specifies how the Coriolis parameter is specified:
				!     2omegasinlat - Use twice the planetary rotation rate
				!       times the sine of latitude.
				!     betaplane - Use a beta-plane or f-plane.
				!     USER - call a user modified routine.
F_0 = 6.8103E-05                !   [s-1] default = 0.0
				! The reference value of the Coriolis parameter with the
				! betaplane option.
BETA = 0.0                      !   [m-1 s-1] default = 0.0
				! The northward gradient of the Coriolis parameter with
				! the betaplane option.


! === module MOM_barotropic ===
DTBT = 30.0                     !   [s or nondim] default = -0.98
				! The barotropic time step, in s. DTBT is only used with
				! the split explicit time stepping. To set the time step
				! automatically based the maximum stable value use 0, or
				! a negative value gives the fraction of the stable value.
				! Setting DTBT to 0 is the same as setting it to -0.98.
				! The value of DTBT that will actually be used is an
				! integer fraction of DT, rounding down.


! === module MOM_EOS ===
EQN_OF_STATE = "LINEAR"         ! default = "WRIGHT"
				! EQN_OF_STATE determines which ocean equation of state
				! should be used.  Currently, the valid choices are
				! "LINEAR", "UNESCO", "WRIGHT", "NEMO" and "TEOS10".
				! This is only used if USE_EOS is true.

! === module MOM_coord_initialization ===
COORD_CONFIG = "none"           !
				! This specifies how layers are to be defined:
				!     ALE or none - used to avoid defining layers in ALE mode
				!     file - read coordinate information from the file
				!       specified by (COORD_FILE).
				!     BFB - Custom coords for buoyancy-forced basin case
				!       based on SST_S, T_BOT and DRHO_DT.
				!     linear - linear based on interfaces not layers
				!     layer_ref - linear based on layer densities
				!     ts_ref - use reference temperature and salinity
				!     ts_range - use range of temperature and salinity
				!       (T_REF and S_REF) to determine surface density
				!       and GINT calculate internal densities.
				!     gprime - use reference density (RHO_0) for surface
				!       density and GINT calculate internal densities.
				!     ts_profile - use temperature and salinity profiles
				!       (read from COORD_FILE) to set layer densities.
				!     USER - call a user modified routine.
REGRIDDING_COORDINATE_MODE = "Z*" ! default = "LAYER"
				! Coordinate mode for vertical regridding.
				! Choose among the following possibilities:
				!  LAYER - Isopycnal or stacked shallow water layers
				!  ZSTAR, Z* - stetched geopotential z*
				!  SIGMA_SHELF_ZSTAR - stetched geopotential z* ignoring shelf
				!  SIGMA - terrain following coordinates
				!  RHO   - continuous isopycnal
				!  HYCOM1 - HyCOM-like hybrid coordinate
				!  SLIGHT - stretched coordinates above continuous isopycnal
				!  ADAPTIVE - optimize for smooth neutral density surfaces
ALE_COORDINATE_CONFIG = "FILE:vgrid.nc,dz" ! default = "UNIFORM"
				! Determines how to specify the coordinate
				! resolution. Valid options are:
				!  PARAM       - use the vector-parameter ALE_RESOLUTION
				!  UNIFORM[:N] - uniformly distributed
				!  FILE:string - read from a file. The string specifies
				!                the filename and variable name, separated
				!                by a comma or space, e.g. FILE:lev.nc,dz
				!                or FILE:lev.nc,interfaces=zw
				!  WOA09[:N]   - the WOA09 vertical grid (approximately)
				!  FNC1:string - FNC1:dz_min,H_total,power,precision
				!  HYBRID:string - read from a file. The string specifies
				!                the filename and two variable names, separated
				!                by a comma or space, for sigma-2 and dz. e.g.
				!                HYBRID:vgrid.nc,sigma2,dz

! === module MOM_state_initialization ===
THICKNESS_CONFIG = "coord"      !
				! A string that determines how the initial layer
				! thicknesses are specified for a new run:
				!     file - read interface heights from the file specified
				!     thickness_file - read thicknesses from the file specified
				!       by (THICKNESS_FILE).
				!     coord - determined by ALE coordinate.
				!     uniform - uniform thickness layers evenly distributed
				!       between the surface and MAXIMUM_DEPTH.
				!     list - read a list of positive interface depths.
				!     DOME - use a slope and channel configuration for the
				!       DOME sill-overflow test case.
				!     ISOMIP - use a configuration for the
				!       ISOMIP test case.
				!     benchmark - use the benchmark test case thicknesses.
				!     Neverland - use the Neverland test case thicknesses.
				!     search - search a density profile for the interface
				!       densities. This is not yet implemented.
				!     circle_obcs - the circle_obcs test case is used.
				!     DOME2D - 2D version of DOME initialization.
				!     adjustment2d - 2D lock exchange thickness ICs.
				!     sloshing - sloshing gravity thickness ICs.
				!     seamount - no motion test with seamount ICs.
				!     dumbbell - sloshing channel ICs.
				!     soliton - Equatorial Rossby soliton.
				!     rossby_front - a mixed layer front in thermal wind balance.
				!     USER - call a user modified routine.
TS_CONFIG = "SCM_CVMix_tests"   !
				! A string that determines how the initial tempertures
				! and salinities are specified for a new run:
				!     file - read velocities from the file specified
				!       by (TS_FILE).
				!     fit - find the temperatures that are consistent with
				!       the layer densities and salinity S_REF.
				!     TS_profile - use temperature and salinity profiles
				!       (read from TS_FILE) to set layer densities.
				!     benchmark - use the benchmark test case T & S.
				!     linear - linear in logical layer space.
				!     DOME2D - 2D DOME initialization.
				!     ISOMIP - ISOMIP initialization.
				!     adjustment2d - 2d lock exchange T/S ICs.
				!     sloshing - sloshing mode T/S ICs.
				!     seamount - no motion test with seamount ICs.
				!     dumbbell - sloshing channel ICs.
				!     rossby_front - a mixed layer front in thermal wind balance.
				!     SCM_CVMix_tests - used in the SCM CVMix tests.
				!     USER - call a user modified routine.
SCM_TEMP_MLD = 32.0             !   [m] default = 0.0
				! Initial temp mixed layer depth
SCM_L1_TEMP = 30.0              !   [C] default = 20.0
				! Layer 1 surface temperature
SCM_L2_TEMP = 30.0              !   [C] default = 20.0
				! Layer 2 surface temperature
SCM_L2_DTDZ = 0.04              !   [C/m] default = 0.0
				! Initial temperature stratification in layer 2
SCM_L2_MINTEMP = 4.0            !   [C] default = 4.0
				! Layer 2 minimum temperature

! === module MOM_surface_forcing ===
VARIABLE_WINDS = True           !   [Boolean] default = True
				! If true, the winds vary in time after the initialization.
VARIABLE_BUOYFORCE = True       !   [Boolean] default = True
				! If true, the buoyancy forcing varies in time after the
				! initialization of the model.
BUOY_CONFIG = "const"           !
				! The character string that indicates how buoyancy forcing
				! is specified. Valid options include (file), (zero),
				! (linear), (USER), (BFB) and (NONE).
SENSIBLE_HEAT_FLUX = 0.0        !   [W/m2]
				! A constant heat forcing (positive into ocean) applied
				! through the sensible heat flux field.
WIND_CONFIG = "ideal_hurr"      !
				! The character string that indicates how wind forcing
				! is specified. Valid options include (file), (2gyre),
				! (1gyre), (gyres), (zero), and (USER).
RESTOREBUOY = False             !   [Boolean] default = False
				! If true, the buoyancy fluxes drive the model back
				! toward some specified surface state with a rate
				! given by FLUXCONST.
LATENT_HEAT_FUSION = 3.34E+05   !   [J/kg] default = 3.34E+05
				! The latent heat of fusion.
LATENT_HEAT_VAPORIZATION = 2.5E+06 !   [J/kg] default = 2.5E+06
				! The latent heat of fusion.
GUST_CONST = 0.02               !   [Pa] default = 0.02
				! The background gustiness in the winds.
READ_GUST_2D = False            !   [Boolean] default = False
				! If true, use a 2-dimensional gustiness supplied from
				! an input file

! === module idealized_hurricane ===
IDL_HURR_RHO_AIR = 1.2          !   [kg/m3] default = 1.2
				! Air density used to compute the idealized hurricanewind profile.
IDL_HURR_AMBIENT_PRESSURE = 1.012E+05 !   [Pa] default = 1.012E+05
				! Ambient pressure used in the idealized hurricane wind profile.
IDL_HURR_CENTRAL_PRESSURE = 9.68E+04 !   [Pa] default = 9.68E+04
				! Central pressure used in the idealized hurricane wind profile.
IDL_HURR_RAD_MAX_WIND = 5.0E+04 !   [m] default = 5.0E+04
				! Radius of maximum winds used in theidealized hurricane wind profile.
IDL_HURR_MAX_WIND = 50.0        !   [m/s] default = 65.0
				! Maximum wind speed used in the idealized hurricanewind profile.
IDL_HURR_TRAN_SPEED = 5.0       !   [m/s] default = 5.0
				! Translation speed of hurricane used in the idealizedhurricane wind profile.
IDL_HURR_TRAN_DIR = 180.0       !   [degrees] default = 180.0
				! Translation direction (towards) of hurricane used in the idealized hurricane wind profile.
IDL_HURR_X0 = 3.432E+06         !   [m] default = 0.0
				! Idealized Hurricane initial X position
IDL_HURR_Y0 = 9.0E+05           !   [m] default = 0.0
				! Idealized Hurricane initial Y position
IDL_HURR_TAU_CURR_REL = False   ! default = False
				! Current relative stress switchused in the idealized hurricane wind profile.
IDL_HURR_SCM_BR_BENCH = True    ! default = False
				! Single column mode benchmark case switch, which is invoking a modification (bug) in the wind profile meant to reproduce a previous implementation.
IDL_HURR_SCM = False            ! default = False
				! Single Column mode switchused in the SCM idealized hurricane wind profile.
IDL_HURR_SCM_LOCY = 5.0E+04     !   [m] default = 5.0E+04
				! Y distance of station used in the SCM idealized hurricane wind profile.

! === module MOM_hor_visc ===
LAPLACIAN = True                !   [Boolean] default = False
				! If true, use a Laplacian horizontal viscosity.
AH_VEL_SCALE = 0.01             !   [m s-1] default = 0.0
				! The velocity scale which is multiplied by the cube of
				! the grid spacing to calculate the biharmonic viscosity.
				! The final viscosity is the largest of this scaled
				! viscosity, the Smagorinsky and Leith viscosities, and AH.
SMAGORINSKY_AH = True           !   [Boolean] default = False
				! If true, use a biharmonic Smagorinsky nonlinear eddy
				! viscosity.
SMAG_BI_CONST = 0.06            !   [nondim] default = 0.0
				! The nondimensional biharmonic Smagorinsky constant,

! === module MOM_mixed_layer_restrat ===
MIXEDLAYER_RESTRAT = False      !   [Boolean] default = False
				! If true, a density-gradient dependent re-stratifying
				! flow is imposed in the mixed layer. Can be used in ALE mode
				! without restriction but in layer mode can only be used if
				! BULKMIXEDLAYER is true.
FOX_KEMPER_ML_RESTRAT_COEF = 1.0
MLE_FRONT_LENGTH = 500.0
MLE_USE_PBL_MLD = False
MLE_MLD_DECAY_TIME = 2.592E+06

! === module MOM_set_visc ===
HBBL = 10.0                     !   [m]
				! The thickness of a bottom boundary layer with a
				! viscosity of KVBBL if BOTTOMDRAGLAW is not defined, or
				! the thickness over which near-bottom velocities are
				! averaged for the drag law if BOTTOMDRAGLAW is defined
				! but LINEAR_DRAG is not.

! === module MOM_vert_friction ===
HMIX_FIXED = 0.01               !   [m]
				! The prescribed depth over which the near-surface
				! viscosity and diffusivity are elevated when the bulk
				! mixed layer is not used.
KV = 1.0E-06                    !   [m2 s-1]
				! The background kinematic viscosity in the interior.
				! The molecular value, ~1e-6 m2 s-1, may be used.

! === module MOM_bkgnd_mixing ===
! Adding static vertical background mixing coefficients
KD = 1.0E-07                    !   [m2 s-1]
				! The background diapycnal diffusivity of density in the
				! interior. Zero or the molecular value, ~1e-7 m2 s-1,
				! may be used.

! === module MOM_CVMix_KPP ===
! This is the MOM wrapper to CVMix:KPP
! See http://cvmix.github.io/
USE_KPP = True                  !   [Boolean] default = False
				! If true, turns on the [CVMix] KPP scheme of Large et al., 1994,
				! to calculate diffusivities and non-local transport in the OBL.
KPP%
RI_CRIT = 0.25                  !   [nondim] default = 0.3
				! Critical bulk Richardson number used to define depth of the
				! surface Ocean Boundary Layer (OBL).

USE_KPP_LT_K = False            ! default = False
				! Flag for Langmuir turbulence enhancement of turbulentmixing coefficient.
KPP_LT_K_METHOD = "RW16"
KPP_LT_K_SHAPE = "SCALED"
USE_KPP_LT_VT2 = False          ! default = False
				! Flag for Langmuir turbulence enhancement of Vt2in Bulk Richardson Number.
KPP_LT_VT2_METHOD = "RW16"
KPP_IS_ADDITIVE = True          !   [Boolean] default = True
				! If true, adds KPP diffusivity to diffusivity from other schemes.If false, KPP is the only diffusivity wherever KPP is non-zero.
MATCH_TECHNIQUE = "SimpleShapes" ! default = "SimpleShapes"
				! CVMix method to set profile function for diffusivity and NLT,
				! as well as matching across OBL base. Allowed values are:
				!    SimpleShapes      = sigma*(1-sigma)^2 for both diffusivity and NLT
				!    MatchGradient     = sigma*(1-sigma)^2 for NLT; diffusivity profile from matching
				!    MatchBoth         = match gradient for both diffusivity and NLT
				!    ParabolicNonLocal = sigma*(1-sigma)^2 for diffusivity; (1-sigma)^2 for NLT
INTERP_TYPE = "quadratic"       ! default = "quadratic"
				! Type of interpolation to determine the OBL depth.
				! Allowed types are: linear, quadratic, cubic.
%KPP

! === module MOM_kappa_shear ===
! Parameterization of shear-driven turbulence following Jackson, Hallberg and Legg, JPO 2008
USE_JACKSON_PARAM = True        !   [Boolean] default = False
				! If true, use the Jackson-Hallberg-Legg (JPO 2008)
				! shear mixing parameterization.
VERTEX_SHEAR = True             !   [Boolean] default = False
				! If true, do the calculations of the shear-driven mixing
				! at the cell vertices (i.e., the vorticity points).


USE_WAVES = False               !   [Boolean] default = False
				! If true, enables surface wave modules.
WAVE_METHOD = SURFACE_BANDS
SURFBAND_SOURCE = DATAOVERRIDE
SURFBAND_FILENAME = 'StkSpec.nc'
