! This MOM_override file demonstrates the use of the new SLight coordinate.
!REGRID_TIME_SCALE = 86400.
NK = 50
#override USE_REGRIDDING = True
#override BULKMIXEDLAYER = False
!#override MIXEDLAYER_RESTRAT = False
#override COORD_FILE = "Layer_coord50.nc"
USE_STORED_SLOPES = True
USE_NEUTRAL_DIFFUSION = True
SIMPLE_TKE_TO_KD = True

REGRIDDING_COORDINATE_MODE = "SLIGHT"
REGRID_COMPRESSIBILITY_FRACTION = 0.01
SLIGHT_DZ_SURFACE = 5.0
SLIGHT_NZ_SURFACE_FIXED = 4
SLIGHT_SURFACE_AVG_DEPTH = 25.0
SLIGHT_NLAY_TO_INTERIOR = 2.0
SLIGHT_FIX_HALOCLINES = True
HALOCLINE_FILTER_LENGTH = 10.0
HALOCLINE_STRAT_TOL = 0.8
MAXIMUM_INT_DEPTH_CONFIG = "FNC1:5,8000,1.0,.125"

ALE_COORDINATE_CONFIG = "HYBRID:hycom1_50.nc,sigma2,dz"
HMIX_FIXED = 0.5
CFL_TRUNCATE_RAMP_TIME = 7200.
Z_INIT_ALE_REMAPPING = True
ENERGETICS_SFC_PBL = True
! VERBOSITY=9
! Z_INIT_REMAPPING_SCHEME = PPM_IH4
Z_INIT_REMAP_GENERAL = True
Z_INIT_REMAP_FULL_COLUMN = True
REMAP_AFTER_INITIALIZATION = False
REGRID_TIME_SCALE = 86400.0
KVML = 0.0                      !   [m2 s-1] default = 1.0E-04
                                ! The kinematic viscosity in the mixed layer.  A typical value is ~1e-2 m2 s-1.
                                ! KVML is not used if BULKMIXEDLAYER is true.  The default is set by KV.
