! Blank file in which we can put "overrides" for parameters
MIN_THICKNESS = 0.1
