! This file was written by the model and records the non-default parameters used at run-time.

! === module MOM ===
SPLIT = False                   !   [Boolean] default = True
                                ! Use the split time stepping if true.
USE_REGRIDDING = True           !   [Boolean] default = False
                                ! If True, use the ALE algorithm (regridding/remapping).
                                ! If False, use the layered isopycnal algorithm.
DT = 3600.0                     !   [s]
                                ! The (baroclinic) dynamics time step.  The time-step that
                                ! is actually used will be an integer fraction of the
                                ! forcing time-step (DT_FORCING in ocean-only mode or the
                                ! coupling timestep in coupled mode.)
MIN_Z_DIAG_INTERVAL = 2.16E+04  !   [s] default = 0.0
                                ! The minimum amount of time in seconds between
                                ! calculations of depth-space diagnostics. Making this
                                ! larger than DT_THERM reduces the  performance penalty
                                ! of regridding to depth online.
FRAZIL = True                   !   [Boolean] default = False
                                ! If true, water freezes if it gets too cold, and the
                                ! the accumulated heat deficit is returned in the
                                ! surface state.  FRAZIL is only used if
                                ! ENABLE_THERMODYNAMICS is true.
C_P = 3925.0                    !   [J kg-1 K-1] default = 3991.86795711963
                                ! The heat capacity of sea water, approximated as a
                                ! constant. This is only used if ENABLE_THERMODYNAMICS is
                                ! true. The default value is from the TEOS-10 definition
                                ! of conservative temperature.
SAVE_INITIAL_CONDS = True       !   [Boolean] default = False
                                ! If true, write the initial conditions to a file given
                                ! by IC_OUTPUT_FILE.

! === module MOM_domains ===
REENTRANT_Y = True              !   [Boolean] default = False
                                ! If true, the domain is meridionally reentrant.
NIGLOBAL = 2                    !
                                ! The total number of thickness grid points in the
                                ! x-direction in the physical domain. With STATIC_MEMORY_
                                ! this is set in MOM_memory.h at compile time.
NJGLOBAL = 2                    !
                                ! The total number of thickness grid points in the
                                ! y-direction in the physical domain. With STATIC_MEMORY_
                                ! this is set in MOM_memory.h at compile time.

! === module MOM_hor_index ===
! Sets the horizontal array index types.

! === module MOM_verticalGrid ===
! Parameters providing information about the vertical grid.
NK = 75                         !   [nondim]
                                ! The number of model layers.

! === module MOM_fixed_initialization ===
INPUTDIR = "INPUT/BATS"         ! default = "."
                                ! The directory in which input files are found.

! === module MOM_grid_init ===
GRID_CONFIG = "cartesian"       !
                                ! A character string that determines the method for
                                ! defining the horizontal grid.  Current options are:
                                !     mosaic - read the grid from a mosaic (supergrid)
                                !              file set by GRID_FILE.
                                !     cartesian - use a (flat) Cartesian grid.
                                !     spherical - use a simple spherical grid.
                                !     mercator - use a Mercator spherical grid.
SOUTHLAT = 30.0                 !   [degrees]
                                ! The southern latitude of the domain or the equivalent
                                ! starting value for the y-axis.
LENLAT = 1.0                    !   [degrees]
                                ! The latitudinal or y-direction length of the domain.
LENLON = 1.0                    !   [degrees]
                                ! The longitudinal or x-direction length of the domain.
TOPO_CONFIG = "flat"            !
                                ! This specifies how bathymetry is specified:
                                !     file - read bathymetric information from the file
                                !       specified by (TOPO_FILE).
                                !     flat - flat bottom set to MAXIMUM_DEPTH.
                                !     bowl - an analytically specified bowl-shaped basin
                                !       ranging between MAXIMUM_DEPTH and MINIMUM_DEPTH.
                                !     spoon - a similar shape to 'bowl', but with an vertical
                                !       wall at the southern face.
                                !     halfpipe - a zonally uniform channel with a half-sine
                                !       profile in the meridional direction.
                                !     benchmark - use the benchmark test case topography.
                                !     Neverland - use the Neverland test case topography.
                                !     DOME - use a slope and channel configuration for the
                                !       DOME sill-overflow test case.
                                !     ISOMIP - use a slope and channel configuration for the
                                !       ISOMIP test case.
                                !     DOME2D - use a shelf and slope configuration for the
                                !       DOME2D gravity current/overflow test case.
                                !     Kelvin - flat but with rotated land mask.
                                !     seamount - Gaussian bump for spontaneous motion test case.
                                !     dumbbell - Sloshing channel with reservoirs on both ends.
                                !     shelfwave - exponential slope for shelfwave test case.
                                !     supercritical - flat but with 8.95 degree land mask.
                                !     Phillips - ACC-like idealized topography used in the Phillips config.
                                !     dense - Denmark Strait-like dense water formation and overflow.
                                !     USER - call a user modified routine.
MINIMUM_DEPTH = 0.5             !   [m] default = 0.0
                                ! The minimum depth of the ocean.
MAXIMUM_DEPTH = 6000.0          !   [m]
                                ! The maximum depth of the ocean.

! === module MOM_open_boundary ===
! Controls where open boundaries are located, what kind of boundary condition to impose, and what data to apply, if any.
ROTATION = "betaplane"          ! default = "2omegasinlat"
                                ! This specifies how the Coriolis parameter is specified:
                                !     2omegasinlat - Use twice the planetary rotation rate
                                !       times the sine of latitude.
                                !     betaplane - Use a beta-plane or f-plane.
                                !     USER - call a user modified routine.
F_0 = 7.59943E-05               !   [s-1] default = 0.0
                                ! The reference value of the Coriolis parameter with the
                                ! betaplane option.

! === module MOM_tracer_registry ===

! === module MOM_EOS ===

! === module MOM_restart ===

! === module MOM_tracer_flow_control ===

! === module MOM_coord_initialization ===
COORD_CONFIG = "none"           !
                                ! This specifies how layers are to be defined:
                                !     ALE or none - used to avoid defining layers in ALE mode
                                !     file - read coordinate information from the file
                                !       specified by (COORD_FILE).
                                !     BFB - Custom coords for buoyancy-forced basin case
                                !       based on SST_S, T_BOT and DRHO_DT.
                                !     linear - linear based on interfaces not layers
                                !     layer_ref - linear based on layer densities
                                !     ts_ref - use reference temperature and salinity
                                !     ts_range - use range of temperature and salinity
                                !       (T_REF and S_REF) to determine surface density
                                !       and GINT calculate internal densities.
                                !     gprime - use reference density (RHO_0) for surface
                                !       density and GINT calculate internal densities.
                                !     ts_profile - use temperature and salinity profiles
                                !       (read from COORD_FILE) to set layer densities.
                                !     USER - call a user modified routine.
REGRIDDING_COORDINATE_MODE = "Z*" ! default = "LAYER"
                                ! Coordinate mode for vertical regridding.
                                ! Choose among the following possibilities:
                                !  LAYER - Isopycnal or stacked shallow water layers
                                !  ZSTAR, Z* - stetched geopotential z*
                                !  SIGMA_SHELF_ZSTAR - stetched geopotential z* ignoring shelf
                                !  SIGMA - terrain following coordinates
                                !  RHO   - continuous isopycnal
                                !  HYCOM1 - HyCOM-like hybrid coordinate
                                !  SLIGHT - stretched coordinates above continuous isopycnal
                                !  ADAPTIVE - optimize for smooth neutral density surfaces
ALE_COORDINATE_CONFIG = "FILE:./INPUT/vgrid_cm4.nc,dz" ! default = "UNIFORM"
                                ! Determines how to specify the coordinate
                                ! resolution. Valid options are:
                                !  PARAM       - use the vector-parameter ALE_RESOLUTION
                                !  UNIFORM[:N] - uniformly distributed
                                !  FILE:string - read from a file. The string specifies
                                !                the filename and variable name, separated
                                !                by a comma or space, e.g. FILE:lev.nc,dz
                                !                or FILE:lev.nc,interfaces=zw
                                !  WOA09[:N]   - the WOA09 vertical grid (approximately)
                                !  FNC1:string - FNC1:dz_min,H_total,power,precision
                                !  HYBRID:string - read from a file. The string specifies
                                !                the filename and two variable names, separated
                                !                by a comma or space, for sigma-2 and dz. e.g.
                                !                HYBRID:vgrid.nc,sigma2,dz
!ALE_RESOLUTION = 4*2.0, 2*2.01, 2*2.02, 2.05, 2.07, 2.09, 2.13, 2.18, 2.24, 2.3, 2.4, 2.5, 2.62, 2.78, 2.95, 3.17, 3.42, 3.71, 4.07, 4.48, 4.97, 5.55, 6.23, 7.04, 7.99, 9.11, 10.43, 11.98, 13.8, 15.94, 18.42, 21.32, 24.66, 28.51, 32.91, 37.92, 43.56, 49.87, 56.88, 64.55, 72.91, 81.87, 91.4, 101.39, 111.73, 122.29, 132.93, 143.47, 153.78, 163.7, 173.07, 181.78, 189.76, 196.89, 203.17, 208.58, 213.14, 216.87, 219.87, 222.19, 223.94, 225.18, 226.04, 226.59, 226.9, 227.07, 227.14, 2*227.16, 227.17 !   [m]
                                ! The distribution of vertical resolution for the target
                                ! grid used for Eulerian-like coordinates. For example,
                                ! in z-coordinate mode, the parameter is a list of level
                                ! thicknesses (in m). In sigma-coordinate mode, the list
                                ! is of non-dimensional fractions of the water column.

! === module MOM_grid ===
! Parameters providing information about the lateral grid.

! === module MOM_state_initialization ===
INIT_LAYERS_FROM_Z_FILE = True  !   [Boolean] default = False
                                ! If true, intialize the layer thicknesses, temperatures,
                                ! and salnities from a Z-space file on a latitude-
                                ! longitude grid.

! === module MOM_initialize_layers_from_Z ===
TEMP_SALT_Z_INIT_FILE = "WOA_column.nc" ! default = "temp_salt_z.nc"
                                ! The name of the z-space input file used to initialize
                                ! temperatures (T) and salinities (S). If T and S are not
                                ! in the same file, TEMP_Z_INIT_FILE and SALT_Z_INIT_FILE
                                ! must be set.
Z_INIT_FILE_PTEMP_VAR = "PTEMP" ! default = "ptemp"
                                ! The name of the potential temperature variable in
                                ! TEMP_Z_INIT_FILE.
Z_INIT_FILE_SALT_VAR = "SALT"   ! default = "salt"
                                ! The name of the salinity variable in
                                ! SALT_Z_INIT_FILE.
Z_INIT_HOMOGENIZE = True        !   [Boolean] default = False
                                ! If True, then horizontally homogenize the interpolated
                                ! initial conditions.
Z_INIT_ALE_REMAPPING = True     !   [Boolean] default = False
                                ! If True, then remap straight to model coordinate from file.

! === module MOM_diag_mediator ===

! === module MOM_MEKE ===

! === module MOM_lateral_mixing_coeffs ===

! === module MOM_set_visc ===
HBBL = 10.0                     !   [m]
                                ! The thickness of a bottom boundary layer with a
                                ! viscosity of KVBBL if BOTTOMDRAGLAW is not defined, or
                                ! the thickness over which near-bottom velocities are
                                ! averaged for the drag law if BOTTOMDRAGLAW is defined
                                ! but LINEAR_DRAG is not.
CDRAG = 0.0                     !   [nondim] default = 0.003
                                ! CDRAG is the drag coefficient relating the magnitude of
                                ! the velocity field to the bottom stress. CDRAG is only
                                ! used if BOTTOMDRAGLAW is defined.
DRAG_BG_VEL = 0.1               !   [m s-1] default = 0.0
                                ! DRAG_BG_VEL is either the assumed bottom velocity (with
                                ! LINEAR_DRAG) or an unresolved  velocity that is
                                ! combined with the resolved velocity to estimate the
                                ! velocity magnitude.  DRAG_BG_VEL is only used when
                                ! BOTTOMDRAGLAW is defined.
BBL_THICK_MIN = 0.1             !   [m] default = 0.0
                                ! The minimum bottom boundary layer thickness that can be
                                ! used with BOTTOMDRAGLAW. This might be
                                ! Kv / (cdrag * drag_bg_vel) to give Kv as the minimum
                                ! near-bottom viscosity.
KV = 1.0E-04                    !   [m2 s-1]
                                ! The background kinematic viscosity in the interior.
                                ! The molecular value, ~1e-6 m2 s-1, may be used.

! === module MOM_continuity ===

! === module MOM_continuity_PPM ===
UPWIND_1ST_CONTINUITY = True    !   [Boolean] default = False
                                ! If true, CONTINUITY_PPM becomes a 1st-order upwind
                                ! continuity solver.  This scheme is highly diffusive
                                ! but may be useful for debugging or in single-column
                                ! mode where its minimal stencil is useful.
ETA_TOLERANCE = 1.0E-06         !   [m] default = 3.75E-09
                                ! The tolerance for the differences between the
                                ! barotropic and baroclinic estimates of the sea surface
                                ! height due to the fluxes through each face.  The total
                                ! tolerance for SSH is 4 times this value.  The default
                                ! is 0.5*NK*ANGSTROM, and this should not be set less x
                                ! than about 10^-15*MAXIMUM_DEPTH.
ETA_TOLERANCE_AUX = 0.001       !   [m] default = 1.0E-06
                                ! The tolerance for free-surface height discrepancies
                                ! between the barotropic solution and the sum of the
                                ! layer thicknesses when calculating the auxiliary
                                ! corrected velocities. By default, this is the same as
                                ! ETA_TOLERANCE, but can be made larger for efficiency.

! === module MOM_CoriolisAdv ===
CORIOLIS_EN_DIS = True          !   [Boolean] default = False
                                ! If true, two estimates of the thickness fluxes are used
                                ! to estimate the Coriolis term, and the one that
                                ! dissipates energy relative to the other one is used.
BOUND_CORIOLIS = True           !   [Boolean] default = False
                                ! If true, the Coriolis terms at u-points are bounded by
                                ! the four estimates of (f+rv)v from the four neighboring
                                ! v-points, and similarly at v-points.  This option is
                                ! always effectively false with CORIOLIS_EN_DIS defined and
                                ! CORIOLIS_SCHEME set to SADOURNY75_ENERGY.

! === module MOM_PressureForce ===

! === module MOM_PressureForce_AFV ===

! === module MOM_hor_visc ===
BIHARMONIC = False              !   [Boolean] default = True
                                ! If true, use a biharmonic horizontal viscosity.
                                ! BIHARMONIC may be used with LAPLACIAN.

! === module MOM_vert_friction ===
U_TRUNC_FILE = "U_velocity_truncations" ! default = ""
                                ! The absolute path to a file into which the accelerations
                                ! leading to zonal velocity truncations are written.
                                ! Undefine this for efficiency if this diagnostic is not
                                ! needed.
V_TRUNC_FILE = "V_velocity_truncations" ! default = ""
                                ! The absolute path to a file into which the accelerations
                                ! leading to meridional velocity truncations are written.
                                ! Undefine this for efficiency if this diagnostic is not
                                ! needed.
HARMONIC_VISC = True            !   [Boolean] default = False
                                ! If true, use the harmonic mean thicknesses for
                                ! calculating the vertical viscosity.
HMIX_FIXED = 0.01               !   [m]
                                ! The prescribed depth over which the near-surface
                                ! viscosity and diffusivity are elevated when the bulk
                                ! mixed layer is not used.
MAXVEL = 6.0                    !   [m s-1] default = 3.0E+08
                                ! The maximum velocity allowed before the velocity
                                ! components are truncated.

! === module MOM_PointAccel ===

! === module MOM_thickness_diffuse ===

! === module MOM_mixed_layer_restrat ===

! === module MOM_diag_to_Z ===
Z_OUTPUT_GRID_FILE = "../zgrid.nc" ! default = ""
                                ! The file that specifies the vertical grid for
                                ! depth-space diagnostics, or blank to disable
                                ! depth-space output.
!NK_ZSPACE (from file) = 60     !   [nondim]
                                ! The number of depth-space levels.  This is determined
                                ! from the size of the variable zw in the output grid file.

! === module MOM_diabatic_driver ===
! The following parameters are used for diabatic processes.
ENERGETICS_SFC_PBL = True       !   [Boolean] default = False
                                ! If true, use an implied energetics planetary boundary
                                ! layer scheme to determine the diffusivity and viscosity
                                ! in the surface boundary layer.

! === module MOM_KPP ===
! This is the MOM wrapper to CVMix:KPP
! See http://cvmix.github.io/
USE_KPP = True                  !   [Boolean] default = False
                                ! If true, turns on the [CVMix] KPP scheme of Large et al., 1994,
                                ! to calculate diffusivities and non-local transport in the OBL.
KPP%
PASSIVE = True                  !   [Boolean] default = False
                                ! If True, puts KPP into a passive-diagnostic mode.
%KPP

! === module MOM_tidal_mixing ===
! Vertical Tidal Mixing Parameterization

! === module MOM_CVMix_conv ===
! Parameterization of enhanced mixing due to convection via CVMix

! === module MOM_entrain_diffusive ===
MAX_ENT_IT = 20                 ! default = 5
                                ! The maximum number of iterations that may be used to
                                ! calculate the interior diapycnal entrainment.
TOLERANCE_ENT = 1.0E-05         !   [m] default = 2.683281572999748E-05
                                ! The tolerance with which to solve for entrainment values.

! === module MOM_set_diffusivity ===
ML_RADIATION = True             !   [Boolean] default = False
                                ! If true, allow a fraction of TKE available from wind
                                ! work to penetrate below the base of the mixed layer
                                ! with a vertical decay scale determined by the minimum
                                ! of: (1) The depth of the mixed layer, (2) an Ekman
                                ! length scale.
TKE_DECAY = 10.0                !   [nondim] default = 2.5
                                ! The ratio of the natural Ekman depth to the TKE decay scale.
ML_OMEGA_FRAC = 1.0             !   [nondim] default = 0.0
                                ! When setting the decay scale for turbulence, use this
                                ! fraction of the absolute rotation rate blended with the
                                ! local value of f, as sqrt((1-of)*f^2 + of*4*omega^2).

! === module MOM_bkgnd_mixing ===
! Adding static vertical background mixing coefficients
KD = 2.0E-05                    !   [m2 s-1]
                                ! The background diapycnal diffusivity of density in the
                                ! interior. Zero or the molecular value, ~1e-7 m2 s-1,
                                ! may be used.
KD_MIN = 2.0E-06                !   [m2 s-1] default = 2.0E-07
                                ! The minimum diapycnal diffusivity.

! === module MOM_kappa_shear ===
! Parameterization of shear-driven turbulence following Jackson, Hallberg and Legg, JPO 2008
USE_JACKSON_PARAM = True        !   [Boolean] default = False
                                ! If true, use the Jackson-Hallberg-Legg (JPO 2008)
                                ! shear mixing parameterization.
MAX_RINO_IT = 25                !   [nondim] default = 50
                                ! The maximum number of iterations that may be used to
                                ! estimate the Richardson number driven mixing.

! === module MOM_CVMix_shear ===
! Parameterization of shear-driven turbulence via CVMix (various options)

! === module MOM_diabatic_aux ===
! The following parameters are used for auxiliary diabatic processes.
RECLAIM_FRAZIL = False          !   [Boolean] default = True
                                ! If true, try to use any frazil heat deficit to cool any
                                ! overlying layers down to the freezing point, thereby
                                ! avoiding the creation of thin ice when the SST is above
                                ! the freezing point.

! === module MOM_energetic_PBL ===
EPBL_USTAR_MIN = 1.45842E-18    !   [m s-1]
                                ! The (tiny) minimum friction velocity used within the
                                ! ePBL code, derived from OMEGA and ANGSTROM.

! === module MOM_regularize_layers ===
HMIX_MIN = 2.0                  !   [m] default = 0.0
                                ! The minimum mixed layer depth if the mixed layer depth
                                ! is determined dynamically.

! === module MOM_opacity ===
VAR_PEN_SW = True               !   [Boolean] default = False
                                ! If true, use one of the CHL_A schemes specified by
                                ! OPACITY_SCHEME to determine the e-folding depth of
                                ! incoming short wave radiation.
CHL_FILE = "forcing_monthly.nc" !
                                ! CHL_FILE is the file containing chl_a concentrations in
                                ! the variable CHL_A. It is used when VAR_PEN_SW and
                                ! CHL_FROM_FILE are true.
PEN_SW_NBANDS = 3               ! default = 1
                                ! The number of bands of penetrating shortwave radiation.

! === module MOM_tracer_advect ===

! === module MOM_tracer_hor_diff ===
KHTR = 600.0                    !   [m2 s-1] default = 0.0
                                ! The background along-isopycnal tracer diffusivity.

! === module MOM_neutral_diffusion ===
! This module implements neutral diffusion of tracers

! === module MOM_sum_output ===
MAXTRUNC = 5000                 !   [truncations save_interval-1] default = 0
                                ! The run will be stopped, and the day set to a very
                                ! large value if the velocity is truncated more than
                                ! MAXTRUNC times between energy saves.  Set MAXTRUNC to 0
                                ! to stop if there is any truncation of velocities.
ENERGYSAVEDAYS = 10.0           !   [days] default = 1.0
                                ! The interval in units of TIMEUNIT between saves of the
                                ! energies of the run and other globally summed diagnostics.

! === module MOM_surface_forcing ===
BUOY_CONFIG = "data_override"   !
                                ! The character string that indicates how buoyancy forcing
                                ! is specified. Valid options include (file), (zero),
                                ! (linear), (USER), (BFB) and (NONE).
WIND_CONFIG = "data_override"   !
                                ! The character string that indicates how wind forcing
                                ! is specified. Valid options include (file), (2gyre),
                                ! (1gyre), (gyres), (zero), and (USER).
READ_GUST_2D = True             !   [Boolean] default = False
                                ! If true, use a 2-dimensional gustiness supplied from
                                ! an input file
GUST_2D_FILE = "forcing_monthly.nc" !
                                ! The file in which the wind gustiness is found in
                                ! variable gustiness.

! === module MOM_restart ===

! === module MOM_main (MOM_driver) ===
DAYMAX = 180.0                  !   [days]
                                ! The final time of the whole simulation, in units of
                                ! TIMEUNIT seconds.  This also sets the potential end
                                ! time of the present run segment if the end time is
                                ! not set via ocean_solo_nml in input.nml.
RESTART_CONTROL = 0             ! default = 1
                                ! An integer whose bits encode which restart files are
                                ! written. Add 2 (bit 1) for a time-stamped file, and odd
                                ! (bit 0) for a non-time-stamped file. A non-time-stamped
                                ! restart file is saved at the end of the run segment
                                ! for any non-negative value.
RESTINT = 3650.0                !   [days] default = 0.0
                                ! The interval between saves of the restart file in units
                                ! of TIMEUNIT.  Use 0 (the default) to not save
                                ! incremental restart files at all.

! === module MOM_write_cputime ===
MAXCPU = 2.88E+04               !   [wall-clock seconds] default = -1.0
                                ! The maximum amount of cpu time per processor for which
                                ! MOM should run before saving a restart file and
                                ! quitting with a return value that indicates that a
                                ! further run is required to complete the simulation.
                                ! If automatic restarts are not desired, use a negative
                                ! value for MAXCPU.  MAXCPU has units of wall-clock
                                ! seconds, so the actual CPU time used is larger by a