! Blank file in which we can put "overrides" for parameters
BUOY_CONFIG = "zero"
