! Rho coordinates
USE_REGRIDDING = True
REGRIDDING_COORDINATE_MODE = "RHO" 
!INTERPOLATION_SCHEME = "P1M_H4"
INTERPOLATION_SCHEME = "P3M_IH4IH3"
BOUNDARY_EXTRAPOLATION = True
REMAPPING_SCHEME = "PPM_H4"
MIN_THICKNESS = 1.E-9
MASS_WEIGHT_IN_PRESSURE_GRADIENT = True
