/* This input file provides the adjustable run-time parameters for version 6 of
   the Modular Ocean Model (MOM6), a numerical ocean model developed at NOAA-GFDL.
   Where appropriate, parameters use usually given in MKS units.

   This particular file is for the example in flow_downslope.

   This MOM_input file typically contains only the non-default values that are
   needed to reproduce this example.  A full list of parameters for this example
   can be found in the corresponding MOM_parameter_doc.all file which is
   generated by the model at run-time. */

REENTRANT_X = False             !   [Boolean] default = True
                                ! If true, the domain is zonally reentrant.
REENTRANT_Y = True		! Re-entrant in the y direction
NIHALO = 4                      ! default = 2
                                ! The number of halo points on each side in the
                                ! x-direction.  With STATIC_MEMORY_ this is set as NIHALO_
                                ! in MOM_memory.h at compile time; without STATIC_MEMORY_
                                ! the default is NIHALO_ in MOM_memory.h (if defined) or 2.
NJHALO = 4                      ! default = 2
                                ! The number of halo points on each side in the
                                ! y-direction.  With STATIC_MEMORY_ this is set as NJHALO_
                                ! in MOM_memory.h at compile time; without STATIC_MEMORY_
                                ! the default is NJHALO_ in MOM_memory.h (if defined) or 2.
NIGLOBAL = 640                  !
                                ! The total number of thickness grid points in the
                                ! x-direction in the physical domain. With STATIC_MEMORY_
                                ! this is set in MOM_memory.h at compile time.
NJGLOBAL = 4                    !
                                ! The total number of thickness grid points in the
                                ! y-direction in the physical domain. With STATIC_MEMORY_
                                ! this is set in MOM_memory.h at compile time.
IO_LAYOUT = 1, 1                ! default = 0
                                ! The processor layout to be used, or 0,0 to automatically
                                ! set the io_layout to be the same as the layout.

! === module MOM_grid ===
! Parameters providing information about the vertical grid.
NK = 120                        !   [nondim]
                                ! The number of model layers.

! === module MOM ===
BULKMIXEDLAYER = False          !   [Boolean] default = True
                                ! If true, use a Kraus-Turner-like bulk mixed layer
                                ! with transitional buffer layers.  Layers 1 through
                                ! NKML+NKBL have variable densities. There must be at
                                ! least NKML+NKBL+1 layers if BULKMIXEDLAYER is true.
                                ! The default is the same setting as ENABLE_THERMODYNAMICS.
DT = 20.0                       !   [s]
                                ! The (baroclinic) dynamics time step.  The time-step that
                                ! is actually used will be an integer fraction of the
                                ! forcing time-step (DT_FORCING in ocean-only mode or the
                                ! coupling timestep in coupled mode.)
DT_THERM = 20.0                 !   [s] default = 300.0
                                ! The thermodynamic and tracer advection time step.
                                ! Ideally DT_THERM should be an integer multiple of DT
                                ! and less than the forcing or coupling time-step.
                                ! By default DT_THERM is set to DT.
C_P = 3925.0                    !   [J kg-1 K-1] default = 3991.86795711963
                                ! The heat capacity of sea water, approximated as a
                                ! constant. This is only used if ENABLE_THERMODYNAMICS is
                                ! true. The default value is from the TEOS-10 definition
                                ! of conservative temperature.
SAVE_INITIAL_CONDS = True       !   [Boolean] default = False
                                ! If true, write the initial conditions to a file given
                                ! by IC_OUTPUT_FILE.
IC_OUTPUT_FILE = "Initial_state" ! default = "MOM_IC"
                                ! The file into which to write the initial conditions.

! === module MOM_tracer_registry ===
EQN_OF_STATE = "WRIGHT"         ! default = "WRIGHT"
                                ! EQN_OF_STATE determines which ocean equation of state
                                ! should be used.  Currently, the valid choices are
                                ! "LINEAR", "UNESCO", and "WRIGHT".
                                ! This is only used if USE_EOS is true.
! === module MOM_tracer_flow_control ===
INPUTDIR = "INPUT"              ! default = "."
                                ! The directory in which input files are found.
COORD_CONFIG = "linear"         !
                                ! This specifies how layers are to be defined:
                                !     file - read coordinate information from the file
                                !       specified by (COORD_FILE).
                                !     linear - linear based on interfaces not layesrs.
                                !     ts_ref - use reference temperature and salinity
                                !     ts_range - use range of temperature and salinity
                                !       (T_REF and S_REF) to determine surface density
                                !       and GINT calculate internal densities.
                                !     gprime - use reference density (RHO_0) for surface
                                !       density and GINT calculate internal densities.
                                !     ts_profile - use temperature and salinity profiles
                                !       (read from COORD_FILE) to set layer densities.
                                !     USER - call a user modified routine.
GFS = 9.8                      !   [m s-2] default = 9.8
                                ! The reduced gravity at the free surface.

! === module MOM_grid_init ===
GRID_CONFIG = "cartesian"       !
                                ! A character string that determines the method for
                                ! defining the horizontal grid.  Current options are:
                                !     mosaic - read the grid from a mosaic (supergrid)
                                !              file set by GRID_FILE.
                                !     cartesian - use a (flat) Cartesian grid.
                                !     spherical - use a simple spherical grid.
                                !     mercator - use a Mercator spherical grid.
AXIS_UNITS = "k"                ! default = "degrees"
                                ! The units for the Cartesian axes. Valid entries are:
                                !     degrees - degrees of latitude and longitude
                                !     m - meters
                                !     k - kilometers
SOUTHLAT = 0.0                  !   [k]
                                ! The southern latitude of the domain or the equivalent
                                ! starting value for the y-axis.
LENLAT = 0.5                    !   [k]
                                ! The latitudinal or y-direction length of the domain.
LENLON = 80.0                   !   [k]
                                ! The longitudinal or x-direction length of the domain.
TOPO_CONFIG = "file"            !
                                ! This specifies how bathymetry is specified:
                                !     file - read bathymetric information from the file
                                !       specified by (TOPO_FILE).
                                !     flat - flat bottom set to MAXIMUM_DEPTH.
                                !     bowl - an analytically specified bowl-shaped basin
                                !       ranging between MAXIMUM_DEPTH and MINIMUM_DEPTH.
                                !     spoon - a similar shape to 'bowl', but with an vertical
                                !       wall at the southern face.
                                !     halfpipe - a zonally uniform channel with a half-sine
                                !       profile in the meridional direction.
                                !     benchmark - use the benchmark test case topography.
                                !     DOME - use a slope and channel configuration for the
                                !       DOME sill-overflow test case.
                                !     DOME2D - use a shelf and slope configuration for the
                                !       DOME2D gravity current/overflow test case.
                                !     seamount - Gaussian bump for spontaneous motion test case.
                                !     USER - call a user modified routine.
TOPO_FILE = "topog.nc"          ! default = "topog.nc"
                                ! The file from which the bathymetry is read.
TOPO_VARNAME = "depth"          ! default = "depth"
                                ! The name of the bathymetry variable in TOPO_FILE.
ROTATION = "betaplane"          ! default = "2omegasinlat"
                                ! This specifies how the Coriolis parameter is specified:
                                !     2omegasinlat - Use twice the planetary rotation rate
                                !       times the sine of latitude.
                                !     betaplane - Use a beta-plane or f-plane.
                                !     USER - call a user modified routine.
F_0 = 1.43E-04                  !   [s-1] default = 0.0; 1.43E-04
                                ! The reference value of the Coriolis parameter with the
                                ! betaplane option.
BETA = 0.0                      !   [m-1 s-1] default = 0.0
                                ! The northward gradient of the Coriolis parameter with
                                ! the betaplane option.
THICKNESS_CONFIG = "uniform"     !
                                ! A string that determines how the initial layer
                                ! thicknesses are specified for a new run:
                                !     file - read interface heights from the file specified
                                !     thickness_file - read thicknesses from the file specified
                                !       by (THICKNESS_FILE).
                                !     uniform - uniform thickness layers evenly distributed
                                !       between the surface and MAXIMUM_DEPTH.
                                !     DOME - use a slope and channel configuration for the
                                !       DOME sill-overflow test case.
                                !     benchmark - use the benchmark test case thicknesses.
                                !     search - search a density profile for the interface
                                !       densities. This is not yet implemented.
                                !     circle_obcs - the circle_obcs test case is used.
                                !     DOME2D - 2D version of DOME initialization.
                                !     adjustment2d - TBD AJA.
                                !     sloshing - TBD AJA.
                                !     seamount - TBD AJA.
                                !     USER - call a user modified routine.
INIT_LAYERS_FROM_Z_FILE = True	! Doing this instead of TS_CONFIG="file" and TS_FILE="filename"
TEMP_SALT_Z_INIT_FILE = "IC_TS.nc" 	!Initial conditions file
Z_INIT_FILE_PTEMP_VAR = "PTEMP"	!Variable name for potential temperature
Z_INIT_FILE_SALT_VAR = "SALT"	!Variable name for salt 
Z_INIT_ALE_REMAPPING = True	!
Z_INIT_REMAP_OLD_ALG = False	!
REMAP_UV_USING_OLD_ALG = False	!
SPONGE = True                   !   [Boolean] default = False
                                ! If true, sponges may be applied anywhere in the domain.
                                ! The exact location and properties of those sponges are
                                ! specified via SPONGE_CONFIG.
SPONGE_CONFIG = "RGC"           ! default = "file"
                                ! A string that sets how the sponges are configured:
                                !     file - read sponge properties from the file
                                !       specified by (SPONGE_FILE).
                                !     ISOMIP - apply ale sponge in the ISOMIP case
                                !     RGC - apply sponge in the RGC case
                                !     DOME - use a slope and channel configuration for the
                                !       DOME sill-overflow test case.
                                !     BFB - Sponge at the southern boundary of the domain
                                !       for buoyancy-forced basin case.
                                !     USER - call a user modified routine.
RGC_TNUDG = 10.0           !   [not defined] default = 0.0
                                ! Nudging time scale for sponge layers (days)
RGC_SPONGE_FILE = "sponge_IC.nc" !
                                ! The name of the file with temps., salts. and interfaces to
                                !  damp toward.
SPONGE_PTEMP_VAR = "Temp"       ! default = "Temp"
                                ! The name of the potential temperature variable in
                                ! SPONGE_STATE_FILE.
SPONGE_SALT_VAR = "Salt"        ! default = "Salt"
                                ! The name of the salinity variable in
                                ! SPONGE_STATE_FILE.
SPONGE_ETA_VAR = "eta"          ! default = "eta"
                                ! The name of the interface height variable in
                                ! SPONGE_STATE_FILE.
SPONGE_H_VAR = "h"              ! default = "h"
                                ! The name of the layer thickness variable in
                                ! SPONGE_STATE_FILE.
SPONGE_UV = True                !   [Boolean] default = False
                                ! Apply sponges in u and v, in addition to tracers.
USE_RGC_TRACER = True           ! Using RGC passive tracer configuration.
CONT_SHELF_LENGTH = 15.0        ! Where tracer is set to 1.0 at surface.
! === module MOM_lateral_mixing_coeffs ===
BE = 0.7                        !   [nondim] default = 0.6
                                ! If SPLIT is true, BE determines the relative weighting
                                ! of a  2nd-order Runga-Kutta baroclinic time stepping
                                ! scheme (0.5) and a backward Euler scheme (1) that is
                                ! used for the Coriolis and inertial terms.  BE may be
                                ! from 0.5 to 1, but instability may occur near 0.5.
                                ! BE is also applicable if SPLIT is false and USE_RK2
                                ! is true.
ETA_TOLERANCE = 1.0E-12         !   [m] default = 2.0E-09
                                ! The tolerance for the differences between the
                                ! barotropic and baroclinic estimates of the sea surface
                                ! height due to the fluxes through each face.  The total
                                ! tolerance for SSH is 4 times this value.  The default
                                ! is 0.5*NK*ANGSTROM, and this should not be set less x
                                ! than about 10^-15*MAXIMUM_DEPTH.
CORIOLIS_EN_DIS = True          !   [Boolean] default = False
                                ! If true, two estimates of the thickness fluxes are used
                                ! to estimate the Coriolis term, and the one that
                                ! dissipates energy relative to the other one is used.
BOUND_CORIOLIS = True           !   [Boolean] default = False
                                ! If true, the Coriolis terms at u-points are bounded by
                                ! the four estimates of (f+rv)v from the four neighboring
                                ! v-points, and similarly at v-points.  This option is
                                ! always effectively false with CORIOLIS_EN_DIS defined and
                                ! CORIOLIS_SCHEME set to SADOURNY75_ENERGY.

! === module MOM_hor_visc ===
LAPLACIAN = True                !   [Boolean] default = False
                                ! If true, use a Laplacian horizontal viscosity.
BIHARMONIC = True               !   [Boolean] default = True
                                ! If true, se a biharmonic horizontal viscosity.
                                ! BIHARMONIC may be used with LAPLACIAN.
KH = 1.0E-04                    !   [m2 s-1] default = 0.0
                                ! The background Laplacian horizontal viscosity.
KH_VEL_SCALE = 0.003            !   [m s-1] default = 0.0
                                ! The velocity scale which is multiplied by the grid
                                ! spacing to calculate the Laplacian viscosity.
                                ! The final viscosity is the largest of this scaled
                                ! viscosity, the Smagorinsky viscosity and KH.
AH_VEL_SCALE = 0.003            !   [m s-1] default = 0.0
                                ! The velocity scale which is multiplied by the cube of
                                ! the grid spacing to calculate the biharmonic viscosity.
                                ! The final viscosity is the largest of this scaled
                                ! viscosity, the Smagorinsky and Leith viscosities, and AH.
SMAGORINSKY_KH = True           !   [Boolean] default = False
                                ! If true, use a Smagorinsky nonlinear eddy viscosity.
SMAG_LAP_CONST = 0.15            !   [nondim] default = 0.0
                                ! The nondimensional biharmonic Smagorinsky constant,
                                ! typically 0.15
! === module MOM_vert_friction ===
NOSLIP = False                  !   [Boolean] default = False
                                ! If true, no slip boundary conditions are used; otherwise
                                ! free slip boundary conditions are assumed. The
                                ! implementation of the free slip BCs on a C-grid is much
                                ! cleaner than the no slip BCs. The use of free slip BCs
                                ! is strongly encouraged, and no slip BCs are not used with
                                ! the biharmonic viscosity.
U_TRUNC_FILE = "U_velocity_truncations" ! default = ""
                                ! The absolute path to a file into which the accelerations
                                ! leading to zonal velocity truncations are written.
                                ! Undefine this for efficiency if this diagnostic is not
                                ! needed.
V_TRUNC_FILE = "V_velocity_truncations" ! default = ""
                                ! The absolute path to a file into which the accelerations
                                ! leading to meridional velocity truncations are written.
                                ! Undefine this for efficiency if this diagnostic is not
                                ! needed.
HMIX_FIXED = 20.0               !   [m]
                                ! The prescribed depth over which the near-surface
                                ! viscosity and diffusivity are elevated when the bulk
                                ! mixed layer is not used.
KV = 1.0E-5                     !   [m2 s-1]
                                ! The background kinematic viscosity in the interior.
                                ! The molecular value, ~1e-6 m2 s-1, may be used.
KVML = 0.01                     !   [m2 s-1] default = 1.0E-04
                                ! The kinematic viscosity in the mixed layer.  A typical
                                ! value is ~1e-2 m2 s-1. KVML is not used if
                                ! BULKMIXEDLAYER is true.  The default is set by KV.
HBBL = 10.0                     !   [m]
                                ! The thickness of a bottom boundary layer with a
                                ! viscosity of KVBBL if BOTTOMDRAGLAW is not defined, or
                                ! the thickness over which near-bottom velocities are
                                ! averaged for the drag law if BOTTOMDRAGLAW is defined
                                ! but LINEAR_DRAG is not.
MAXVEL = 50.0                   !   [m s-1] default = 3.0E+08
                                ! The maximum velocity allowed before the velocity
                                ! components are truncated.
! === module MOM_set_visc ===
BOTTOMDRAGLAW = True            !   [Boolean] default = True
                                ! If true, the bottom stress is calculated with a drag
                                ! law of the form c_drag*|u|*u. The velocity magnitude
                                ! may be an assumed value or it may be based on the
                                ! actual velocity in the bottommost HBBL, depending on
                                ! LINEAR_DRAG.
CHANNEL_DRAG = True             !   [Boolean] default = False
                                ! If true, the bottom drag is exerted directly on each
                                ! layer proportional to the fraction of the bottom it
                                ! overlies.
LINEAR_DRAG = True              !   [Boolean] default = False
                                ! If LINEAR_DRAG and BOTTOMDRAGLAW are defined the drag
                                ! law is cdrag*DRAG_BG_VEL*u.
DRAG_BG_VEL = 0.05              !   [m s-1] default = 0.0
                                ! DRAG_BG_VEL is either the assumed bottom velocity (with
                                ! LINEAR_DRAG) or an unresolved  velocity that is
                                ! combined with the resolved velocity to estimate the
                                ! velocity magnitude.  DRAG_BG_VEL is only used when
                                ! BOTTOMDRAGLAW is defined.
CDRAG = 0.003                   !   [nondim] default = 0.003
                                ! CDRAG is the drag coefficient relating the magnitude of
                                ! the velocity field to the bottom stress. CDRAG is only
                                ! used if BOTTOMDRAGLAW is defined.
BBL_THICK_MIN = 0.1             !   [m] default = 0.0
                                ! The minimum bottom boundary layer thickness that can be
                                ! used with BOTTOMDRAGLAW. This might be
                                ! Kv / (cdrag * drag_bg_vel) to give Kv as the minimum
                                ! near-bottom viscosity.

! Parameterization of shear-driven turbulence following Jackson, Hallberg and Legg, JPO 2008
USE_JACKSON_PARAM = True        !   [Boolean] default = False
                                ! If true, use the Jackson-Hallberg-Legg (JPO 2008)
                                ! shear mixing parameterization.
VERTEX_SHEAR = True             !   [Boolean] default = False
                                ! If true, do the calculations of the shear-driven mixing
RINO_CRIT = 0.25                !   [nondim] default = 0.25
                                ! The critical Richardson number for shear mixing.
SHEARMIX_RATE = 0.089           !   [nondim] default = 0.089
                                ! A nondimensional rate scale for shear-driven entrainment.
                                ! Jackson et al find values in the range of 0.085-0.089.
MAX_RINO_IT = 50                !   [nondim] default = 50
                                ! The maximum number of iterations that may be used to
                                ! estimate the Richardson number driven mixing.
KD_KAPPA_SHEAR_0 = 0.0          !   [m2 s-1] default = 0.0
                                ! The background diffusivity that is used to smooth the
                                ! density and shear profiles before solving for the
                                ! diffusivities. Defaults to value of KD.
FRI_CURVATURE = -0.97           !   [nondim] default = -0.97
                                ! The nondimensional curvature of the function of the
                                ! Richardson number in the kappa source term in the
                                ! Jackson et al. scheme.
TKE_N_DECAY_CONST = 0.24        !   [nondim] default = 0.24
                                ! The coefficient for the decay of TKE due to
                                ! stratification (i.e. proportional to N*tke).
                                ! The values found by Jackson et al. are 0.24-0.28.
TKE_SHEAR_DECAY_CONST = 0.14    !   [nondim] default = 0.14
                                ! The coefficient for the decay of TKE due to shear (i.e.
                                ! proportional to |S|*tke). The values found by Jackson
                                ! et al. are 0.14-0.12.
KAPPA_BUOY_SCALE_COEF = 0.82    !   [nondim] default = 0.82
                                ! The coefficient for the buoyancy length scale in the
                                ! kappa equation.  The values found by Jackson et al. are
                                ! in the range of 0.81-0.86.
KAPPA_N_OVER_S_SCALE_COEF2 = 0.0 !   [nondim] default = 0.0
                                ! The square of the ratio of the coefficients of the
                                ! buoyancy and shear scales in the diffusivity equation,
                                ! Set this to 0 (the default) to eliminate the shear scale.
                                ! This is only used if USE_JACKSON_PARAM is true.
KAPPA_SHEAR_TOL_ERR = 0.1       !   [nondim] default = 0.1
                                ! The fractional error in kappa that is tolerated.
                                ! Iteration stops when changes between subsequent
                                ! iterations are smaller than this everywhere in a
                                ! column.  The peak diffusivities usually converge most
                                ! rapidly, and have much smaller errors than this.
TKE_BACKGROUND = 0.0            !   [m2 s-2] default = 0.0
                                ! A background level of TKE used in the first iteration
                                ! of the kappa equation.  TKE_BACKGROUND could be 0.
KAPPA_SHEAR_ELIM_MASSLESS = True !   [Boolean] default = True
                                ! If true, massless layers are merged with neighboring
                                ! massive layers in this calculation.  The default is
                                ! true and I can think of no good reason why it should
                                ! be false. This is only used if USE_JACKSON_PARAM is true.
MAX_KAPPA_SHEAR_IT = 13         !   [nondim] default = 13
                                ! The maximum number of iterations that may be used to
                                ! estimate the time-averaged diffusivity.
DEBUG_KAPPA_SHEAR = False       !   [Boolean] default = False
                                ! If true, write debugging data for the kappa-shear code.
                                ! Caution: this option is _very_ verbose and should only
                                ! be used in single-column mode!
! === module MOM_barotropic ===
BOUND_BT_CORRECTION = True      !   [Boolean] default = False
                                ! If true, the corrective pseudo mass-fluxes into the
                                ! barotropic solver are limited to values that require
                                ! less than 0.1*MAXVEL to be accommodated.
BT_THICK_SCHEME = "HYBRID"      ! default = "FROM_BT_CONT"
                                ! A string describing the scheme that is used to set the
                                ! open face areas used for barotropic transport and the
                                ! relative weights of the accelerations. Valid values are:
                                !    ARITHMETIC - arithmetic mean layer thicknesses
                                !    HARMONIC - harmonic mean layer thicknesses
                                !    HYBRID (the default) - use arithmetic means for
                                !       layers above the shallowest bottom, the harmonic
                                !       mean for layers below, and a weighted average for
                                !       layers that straddle that depth
                                !    FROM_BT_CONT - use the average thicknesses kept
                                !       in the h_u and h_v fields of the BT_cont_type
BT_STRONG_DRAG = False          !   [Boolean] default = True
                                ! If true, use a stronger estimate of the retarding
                                ! effects of strong bottom drag, by making it implicit
                                ! with the barotropic time-step instead of implicit with
                                ! the baroclinic time-step and dividing by the number of
                                ! barotropic steps.
BEBT = 0.2                      !   [nondim] default = 0.1
                                ! BEBT determines whether the barotropic time stepping
                                ! uses the forward-backward time-stepping scheme or a