! Blank file in which we can put "overrides" for parameters
!DEBUG=True
OBC_ZERO_VORTICITY = False
OBC_FREESLIP_VORTICITY = True
!OBC_ZERO_STRAIN = False
OBC_FREESLIP_STRAIN = True
OBC_ZERO_BIHARMONIC = True
