F_0 = 5.15654792e-05
WIND_CONFIG = "const"
CONST_WIND_TAUX = 0.036
CONST_WIND_TAUY = 0.0
BUOY_CONFIG = "const"
SENSIBLE_HEAT_FLUX = -5.0
USE_WAVES = True
WAVE_METHOD = "DHH85"
DHH85_AGE_FP = True
DHH85_AGE = 0.8
DHH85_WIND_SPEED = 5
DHH85_WIND_DIR = 0.
