! This input file provides the adjustable run-time parameters for version 6 of the Modular Ocean Model (MOM6).
! Where appropriate, parameters use usually given in MKS units.

! This particular file is for the example in SCM_idealized_hurricane.

! This MOM_input file typically contains only the non-default values that are needed to reproduce this example.
! A full list of parameters for this example can be found in the corresponding MOM_parameter_doc.all file
! which is generated by the model at run-time.

! === module MOM_domains ===
REENTRANT_Y = True              !   [Boolean] default = False
                                ! If true, the domain is meridionally reentrant.
NIGLOBAL = 2                    !
                                ! The total number of thickness grid points in the x-direction in the physical
                                ! domain. With STATIC_MEMORY_ this is set in MOM_memory.h at compile time.
NJGLOBAL = 2                    !
                                ! The total number of thickness grid points in the y-direction in the physical
                                ! domain. With STATIC_MEMORY_ this is set in MOM_memory.h at compile time.
NIHALO = 2                      ! default = 4
                                ! The number of halo points on each side in the x-direction.  How this is set
                                ! varies with the calling component and static or dynamic memory configuration.
NJHALO = 2                      ! default = 4
                                ! The number of halo points on each side in the y-direction.  How this is set
                                ! varies with the calling component and static or dynamic memory configuration.

! === module MOM ===
SPLIT = False                   !   [Boolean] default = True
                                ! Use the split time stepping if true.
USE_REGRIDDING = True           !   [Boolean] default = False
                                ! If True, use the ALE algorithm (regridding/remapping). If False, use the
                                ! layered isopycnal algorithm.
DT = 1200.0                     !   [s]
                                ! The (baroclinic) dynamics time step.  The time-step that is actually used will
                                ! be an integer fraction of the forcing time-step (DT_FORCING in ocean-only mode
                                ! or the coupling timestep in coupled mode.)
FRAZIL = True                   !   [Boolean] default = False
                                ! If true, water freezes if it gets too cold, and the accumulated heat deficit
                                ! is returned in the surface state.  FRAZIL is only used if
                                ! ENABLE_THERMODYNAMICS is true.
C_P = 3992.10322329649          !   [J kg-1 K-1] default = 3991.86795711963
                                ! The heat capacity of sea water, approximated as a constant. This is only used
                                ! if ENABLE_THERMODYNAMICS is true. The default value is from the TEOS-10
                                ! definition of conservative temperature.
SAVE_INITIAL_CONDS = True       !   [Boolean] default = False
                                ! If true, write the initial conditions to a file given by IC_OUTPUT_FILE.

! === module MOM_fixed_initialization ===

! === module MOM_grid_init ===
GRID_CONFIG = "cartesian"       !
                                ! A character string that determines the method for defining the horizontal
                                ! grid.  Current options are:
                                !     mosaic - read the grid from a mosaic (supergrid)
                                !              file set by GRID_FILE.
                                !     cartesian - use a (flat) Cartesian grid.
                                !     spherical - use a simple spherical grid.
                                !     mercator - use a Mercator spherical grid.
SOUTHLAT = 27.836               !   [degrees]
                                ! The southern latitude of the domain or the equivalent starting value for the
                                ! y-axis.
LENLAT = 2.0                    !   [degrees]
                                ! The latitudinal or y-direction length of the domain.
LENLON = 2.0                    !   [degrees]
                                ! The longitudinal or x-direction length of the domain.
TOPO_CONFIG = "flat"            !
                                ! This specifies how bathymetry is specified:
                                !     file - read bathymetric information from the file
                                !       specified by (TOPO_FILE).
                                !     flat - flat bottom set to MAXIMUM_DEPTH.
                                !     bowl - an analytically specified bowl-shaped basin
                                !       ranging between MAXIMUM_DEPTH and MINIMUM_DEPTH.
                                !     spoon - a similar shape to 'bowl', but with an vertical
                                !       wall at the southern face.
                                !     halfpipe - a zonally uniform channel with a half-sine
                                !       profile in the meridional direction.
                                !     bbuilder - build topography from list of functions.
                                !     benchmark - use the benchmark test case topography.
                                !     Neverworld - use the Neverworld test case topography.
                                !     DOME - use a slope and channel configuration for the
                                !       DOME sill-overflow test case.
                                !     ISOMIP - use a slope and channel configuration for the
                                !       ISOMIP test case.
                                !     DOME2D - use a shelf and slope configuration for the
                                !       DOME2D gravity current/overflow test case.
                                !     Kelvin - flat but with rotated land mask.
                                !     seamount - Gaussian bump for spontaneous motion test case.
                                !     dumbbell - Sloshing channel with reservoirs on both ends.
                                !     shelfwave - exponential slope for shelfwave test case.
                                !     Phillips - ACC-like idealized topography used in the Phillips config.
                                !     dense - Denmark Strait-like dense water formation and overflow.
                                !     USER - call a user modified routine.
MINIMUM_DEPTH = 0.5             !   [m] default = 0.0
                                ! The minimum depth of the ocean.
MAXIMUM_DEPTH = 300.0           !   [m]
                                ! The maximum depth of the ocean.
ROTATION = "betaplane"          ! default = "2omegasinlat"
                                ! This specifies how the Coriolis parameter is specified:
                                !     2omegasinlat - Use twice the planetary rotation rate
                                !       times the sine of latitude.
                                !     betaplane - Use a beta-plane or f-plane.
                                !     USER - call a user modified routine.
F_0 = 6.8103E-05                !   [s-1] default = 0.0
                                ! The reference value of the Coriolis parameter with the betaplane option.

! === module MOM_verticalGrid ===
! Parameters providing information about the vertical grid.
G_EARTH = 9.81                  !   [m s-2] default = 9.8
                                ! The gravitational acceleration of the Earth.
RHO_0 = 1027.0                  !   [kg m-3] default = 1035.0
                                ! The mean ocean density used with BOUSSINESQ true to calculate accelerations
                                ! and the mass for conservation properties, or with BOUSSINSEQ false to convert
                                ! some parameters from vertical units of m to kg m-2.
NK = 600                        !   [nondim]
                                ! The number of model layers.

! === module MOM_EOS ===
EQN_OF_STATE = "LINEAR"         ! default = "WRIGHT"
                                ! EQN_OF_STATE determines which ocean equation of state should be used.
                                ! Currently, the valid choices are "LINEAR", "UNESCO", "WRIGHT", "NEMO" and
                                ! "TEOS10". This is only used if USE_EOS is true.
DRHO_DS = 0.0                   !   [kg m-3 PSU-1] default = 0.8
                                ! When EQN_OF_STATE=LINEAR, this is the partial derivative of density with
                                ! salinity.

! === module MOM_tracer_flow_control ===

! === module MOM_coord_initialization ===
REGRIDDING_COORDINATE_MODE = "Z*" ! default = "LAYER"
                                ! Coordinate mode for vertical regridding. Choose among the following
                                ! possibilities:  LAYER - Isopycnal or stacked shallow water layers
                                !  ZSTAR, Z* - stretched geopotential z*
                                !  SIGMA_SHELF_ZSTAR - stretched geopotential z* ignoring shelf
                                !  SIGMA - terrain following coordinates
                                !  RHO   - continuous isopycnal
                                !  HYCOM1 - HyCOM-like hybrid coordinate
                                !  SLIGHT - stretched coordinates above continuous isopycnal
                                !  ADAPTIVE - optimize for smooth neutral density surfaces
!ALE_RESOLUTION = 600*0.5       !   [m]
                                ! The distribution of vertical resolution for the target
                                ! grid used for Eulerian-like coordinates. For example,
                                ! in z-coordinate mode, the parameter is a list of level
                                ! thicknesses (in m). In sigma-coordinate mode, the list
                                ! is of non-dimensional fractions of the water column.

! === module MOM_state_initialization ===
TS_CONFIG = "SCM_CVMix_tests"   !
                                ! A string that determines how the initial tempertures and salinities are
                                ! specified for a new run:
                                !     file - read velocities from the file specified
                                !       by (TS_FILE).
                                !     fit - find the temperatures that are consistent with
                                !       the layer densities and salinity S_REF.
                                !     TS_profile - use temperature and salinity profiles
                                !       (read from TS_FILE) to set layer densities.
                                !     benchmark - use the benchmark test case T & S.
                                !     linear - linear in logical layer space.
                                !     DOME2D - 2D DOME initialization.
                                !     ISOMIP - ISOMIP initialization.
                                !     adjustment2d - 2d lock exchange T/S ICs.
                                !     sloshing - sloshing mode T/S ICs.
                                !     seamount - no motion test with seamount ICs.
                                !     dumbbell - sloshing channel ICs.
                                !     rossby_front - a mixed layer front in thermal wind balance.
                                !     SCM_CVMix_tests - used in the SCM CVMix tests.
                                !     USER - call a user modified routine.
SCM_TEMP_MLD = 32.0             !   [m] default = 0.0
                                ! Initial temp mixed layer depth
SCM_L1_TEMP = 29.25             !   [C] default = 20.0
                                ! Layer 1 surface temperature
SCM_L2_TEMP = 29.25             !   [C] default = 20.0
                                ! Layer 2 surface temperature
SCM_L2_DTDZ = 0.04              !   [C/m] default = 0.0
                                ! Initial temperature stratification in layer 2

! === module MOM_diag_mediator ===

! === module MOM_lateral_mixing_coeffs ===

! === module MOM_set_visc ===
HBBL = 10.0                     !   [m]
                                ! The thickness of a bottom boundary layer with a viscosity of KVBBL if
                                ! BOTTOMDRAGLAW is not defined, or the thickness over which near-bottom
                                ! velocities are averaged for the drag law if BOTTOMDRAGLAW is defined but
                                ! LINEAR_DRAG is not.
CDRAG = 0.0                     !   [nondim] default = 0.003
                                ! CDRAG is the drag coefficient relating the magnitude of the velocity field to
                                ! the bottom stress. CDRAG is only used if BOTTOMDRAGLAW is defined.
DRAG_BG_VEL = 0.1               !   [m s-1] default = 0.0
                                ! DRAG_BG_VEL is either the assumed bottom velocity (with LINEAR_DRAG) or an
                                ! unresolved  velocity that is combined with the resolved velocity to estimate
                                ! the velocity magnitude.  DRAG_BG_VEL is only used when BOTTOMDRAGLAW is
                                ! defined.
BBL_THICK_MIN = 0.1             !   [m] default = 0.0
                                ! The minimum bottom boundary layer thickness that can be used with
                                ! BOTTOMDRAGLAW. This might be Kv/(cdrag*drag_bg_vel) to give Kv as the minimum
                                ! near-bottom viscosity.
KV = 1.0E-04                    !   [m2 s-1]
                                ! The background kinematic viscosity in the interior. The molecular value, ~1e-6
                                ! m2 s-1, may be used.

! === module MOM_thickness_diffuse ===

! === module MOM_dynamics_unsplit ===

! === module MOM_continuity ===

! === module MOM_continuity_PPM ===
UPWIND_1ST_CONTINUITY = True    !   [Boolean] default = False
                                ! If true, CONTINUITY_PPM becomes a 1st-order upwind continuity solver.  This
                                ! scheme is highly diffusive but may be useful for debugging or in single-column
                                ! mode where its minimal stencil is useful.
ETA_TOLERANCE = 1.0E-06         !   [m] default = 3.0E-08
                                ! The tolerance for the differences between the barotropic and baroclinic
                                ! estimates of the sea surface height due to the fluxes through each face.  The
                                ! total tolerance for SSH is 4 times this value.  The default is
                                ! 0.5*NK*ANGSTROM, and this should not be set less than about
                                ! 10^-15*MAXIMUM_DEPTH.
ETA_TOLERANCE_AUX = 0.001       !   [m] default = 1.0E-06
                                ! The tolerance for free-surface height discrepancies between the barotropic
                                ! solution and the sum of the layer thicknesses when calculating the auxiliary
                                ! corrected velocities. By default, this is the same as ETA_TOLERANCE, but can
                                ! be made larger for efficiency.

! === module MOM_CoriolisAdv ===
CORIOLIS_EN_DIS = True          !   [Boolean] default = False
                                ! If true, two estimates of the thickness fluxes are used to estimate the
                                ! Coriolis term, and the one that dissipates energy relative to the other one is
                                ! used.
BOUND_CORIOLIS = True           !   [Boolean] default = False
                                ! If true, the Coriolis terms at u-points are bounded by the four estimates of
                                ! (f+rv)v from the four neighboring v-points, and similarly at v-points.  This
                                ! option is always effectively false with CORIOLIS_EN_DIS defined and
                                ! CORIOLIS_SCHEME set to SADOURNY75_ENERGY.

! === module MOM_PressureForce ===

! === module MOM_PressureForce_AFV ===

! === module MOM_hor_visc ===
BIHARMONIC = False              !   [Boolean] default = True
                                ! If true, use a biharmonic horizontal viscosity. BIHARMONIC may be used with
                                ! LAPLACIAN.

! === module MOM_vert_friction ===
HARMONIC_VISC = True            !   [Boolean] default = False
                                ! If true, use the harmonic mean thicknesses for calculating the vertical
                                ! viscosity.
HMIX_FIXED = 0.01               !   [m]
                                ! The prescribed depth over which the near-surface viscosity and diffusivity are
                                ! elevated when the bulk mixed layer is not used.
KVML = 0.0                      !   [m2 s-1] default = 1.0E-04
                                ! The kinematic viscosity in the mixed layer.  A typical value is ~1e-2 m2 s-1.
                                ! KVML is not used if BULKMIXEDLAYER is true.  The default is set by KV.
MAXVEL = 6.0                    !   [m s-1] default = 3.0E+08
                                ! The maximum velocity allowed before the velocity components are truncated.
VEL_UNDERFLOW = 1.0E-30         !   [m s-1] default = 0.0
                                ! A negligibly small velocity magnitude below which velocity components are set
                                ! to 0.  A reasonable value might be 1e-30 m/s, which is less than an Angstrom
                                ! divided by the age of the universe.

! === module MOM_diagnostics ===

! === module MOM_diabatic_driver ===
! The following parameters are used for diabatic processes.

! === module MOM_CVMix_KPP ===
! This is the MOM wrapper to CVMix:KPP
! See http://cvmix.github.io/
USE_KPP = True                  !   [Boolean] default = False
                                ! If true, turns on the [CVMix] KPP scheme of Large et al., 1994, to calculate
                                ! diffusivities and non-local transport in the OBL.
KPP%
APPLY_NONLOCAL_TRANSPORT = False !   [Boolean] default = True
                                ! If True, applies the non-local transport to heat and scalars. If False,
                                ! calculates the non-local transport and tendencies but purely for diagnostic
                                ! purposes.
INTERP_TYPE = "cubic"           ! default = "quadratic"
                                ! Type of interpolation to determine the OBL depth.
                                ! Allowed types are: linear, quadratic, cubic.
%KPP

! === module MOM_set_diffusivity ===

! === module MOM_bkgnd_mixing ===
! Adding static vertical background mixing coefficients

! === module MOM_diabatic_aux ===
! The following parameters are used for auxiliary diabatic processes.
RECLAIM_FRAZIL = False          !   [Boolean] default = True
                                ! If true, try to use any frazil heat deficit to cool any overlying layers down
                                ! to the freezing point, thereby avoiding the creation of thin ice when the SST
                                ! is above the freezing point.

! === module MOM_opacity ===

! === module MOM_tracer_advect ===

! === module MOM_tracer_hor_diff ===
KHTR = 600.0                    !   [m2 s-1] default = 0.0
                                ! The background along-isopycnal tracer diffusivity.

! === module MOM_sum_output ===
MAXTRUNC = 5000                 !   [truncations save_interval-1] default = 0
                                ! The run will be stopped, and the day set to a very large value if the velocity
                                ! is truncated more than MAXTRUNC times between energy saves.  Set MAXTRUNC to 0
                                ! to stop if there is any truncation of velocities.
ENERGYSAVEDAYS = 0.25           !   [days] default = 1.0
                                ! The interval in units of TIMEUNIT between saves of the energies of the run and
                                ! other globally summed diagnostics.

! === module MOM_surface_forcing ===
BUOY_CONFIG = "const"           ! default = "zero"
                                ! The character string that indicates how buoyancy forcing is specified. Valid
                                ! options include (file), (zero), (linear), (USER), (BFB) and (NONE).
SENSIBLE_HEAT_FLUX = 0.0        !   [W/m2]
                                ! A constant heat forcing (positive into ocean) applied through the sensible
                                ! heat flux field.
WIND_CONFIG = "SCM_ideal_hurr"  ! default = "zero"
                                ! The character string that indicates how wind forcing is specified. Valid
                                ! options include (file), (2gyre), (1gyre), (gyres), (zero), and (USER).

! === module idealized_hurricane ===

! === module MOM_main (MOM_driver) ===
DAYMAX = 3.0                    !   [days]
                                ! The final time of the whole simulation, in units of TIMEUNIT seconds.  This
                                ! also sets the potential end time of the present run segment if the end time is
                                ! not set via ocean_solo_nml in input.nml.
RESTART_CONTROL = 0             ! default = 1
                                ! An integer whose bits encode which restart files are written. Add 2 (bit 1)
                                ! for a time-stamped file, and odd (bit 0) for a non-time-stamped file. A
                                ! non-time-stamped restart file is saved at the end of the run segment for any
                                ! non-negative value.
RESTINT = 3650.0                !   [days] default = 0.0
                                ! The interval between saves of the restart file in units of TIMEUNIT.  Use 0
                                ! (the default) to not save incremental restart files at all.

! Debugging parameters set to non-default values
U_TRUNC_FILE = "U_velocity_truncations" ! default = ""
                                ! The absolute path to a file into which the accelerations leading to zonal
                                ! velocity truncations are written. Undefine this for efficiency if this
                                ! diagnostic is not needed.
V_TRUNC_FILE = "V_velocity_truncations" ! default = ""
                                ! The absolute path to a file into which the accelerations leading to meridional
                                ! velocity truncations are written. Undefine this for efficiency if this
                                ! diagnostic is not needed.
