! Blank file in which we can put "overrides" for parameters
!VERBOSITY = 9
SAVE_INITIAL_CONDS = True
