! Continuous isopycnal mode + initialization
!VERBOSITY=9
!DEBUG = True
!DEBUG_CONSERVATION = True
!NK_RHO_VARIES = 25
USE_REGRIDDING = True
REGRIDDING_COORDINATE_MODE = "Z*" 
INTERPOLATION_SCHEME = "P3M_IH4IH3"
BOUNDARY_EXTRAPOLATION = True
REMAPPING_SCHEME = "PPM_IH4"
