! Continuous isopycnal mode + initialization
!VERBOSITY=9
!DEBUG = True
!DEBUG_CONSERVATION = True
!NK_RHO_VARIES = 25
USE_REGRIDDING = True
REGRIDDING_COORDINATE_MODE = "Z*" 
REMAPPING_SCHEME = "PPM_IH4"
