! This file was written by the model and records the non-default parameters used at run-time.
GRID_CONFIG = "mosaic"          !    Method for defining horizontal grid
                                !  = file|cartesian|spherical|mercator
                                !  file - read grid from file "GRID_FILE"
                                !  cartesian - a Cartesian grid
                                !  spherical - a spherical grid
                                !  mercator  - a Mercator grid
OMEGA = 7.292e-5                !   The rotation rate of the earth in s-1.
CGRID_ICE_DYNAMICS = True       !   [Boolean] default = False
                                ! If true, use a C-grid discretization of the sea-ice
                                ! dynamics; if false use a B-grid discretization.
INTERSPERSED_ICE_THERMO = False !   [Boolean] default = True
                                ! If true, the sea ice thermodynamic updates are applied
                                ! after the new velocities are determined, but before the
                                ! transport occurs.  Otherwise, the ice thermodynamic
                                ! updates occur at the start of the slow ice update and
                                ! dynamics and continuity can occur together.
                                ! The default should be changed to false.
DT_ICE_DYNAMICS = 1200.0        !   [seconds] default = -1.0
                                ! The time step used for the slow ice dynamics, including
                                ! stepping the continuity equation and interactions
                                ! between the ice mass field and velocities.  If 0 or
                                ! negative the coupling time step will be used.
ICE_BULK_SALINITY = 0.0         !   [g/kg] default = 4.0
                                ! The fixed bulk salinity of sea ice.
ICE_RELATIVE_SALINITY = 0.1     !   [nondim] default = 0.0
                                ! The initial salinity of sea ice as a fraction of the
                                ! salinity of the seawater from which it formed.
DO_ICEBERGS = True              !   [Boolean] default = False
                                ! If true, call the iceberg module.
ICE_STATS_INTERVAL = 0.25       !   [days] default = 1.0
                                ! The interval in units of TIMEUNIT between writes of the
                                ! globally summed ice statistics and conservation checks.
TRIPOLAR_N = True               !   [Boolean] default = False
                                ! Use tripolar connectivity at the northern edge of the
                                ! domain.  With TRIPOLAR_N, NIGLOBAL must be even.
NIGLOBAL = 1440                 !
                                ! The total number of thickness grid points in the
                                ! x-direction in the physical domain. With STATIC_MEMORY_
                                ! this is set in SIS2_memory.h at compile time.
NJGLOBAL = 1080                 !
                                ! The total number of thickness grid points in the
                                ! y-direction in the physical domain. With STATIC_MEMORY_
                                ! this is set in SIS2_memory.h at compile time.
GRID_FILE = "ocean_hgrid.nc"    !
                                ! Name of the file from which to read horizontal grid data.
INPUTDIR = "INPUT"              ! default = "."
                                ! The directory in which input files are found.
GRID_CONFIG = "mosaic"          !
                                ! The method for defining the horizontal grid.  Valid
                                ! entries include:
                                !    file - read the grid from GRID_FILE
                                !    mosaic - read the grid from a mosaic grid file
                                !    cartesian - a Cartesian grid
                                !    spherical - a spherical grid
                                !    mercator  - a Mercator grid
ICE_DELTA_EDD_R_ICE = 1.0       !   [perhaps nondimensional?] default = 0.0
                                ! A dreadfully documented tuning parameter for the radiative
                                ! propeties of sea ice with the delta-Eddington radiative
                                ! transfer calculation.
ICE_DELTA_EDD_R_SNOW = 1.0      !   [perhaps nondimensional?] default = 0.0
                                ! A dreadfully documented tuning parameter for the radiative
                                ! propeties of snow on sea ice with the delta-Eddington
                                ! radiative transfer calculation.
ICE_DELTA_EDD_R_POND = 1.0      !   [perhaps nondimensional?] default = 0.0
                                ! A dreadfully documented tuning parameter for the radiative
                                ! propeties of meltwater ponds on sea ice with the delta-Eddington
                                ! radiative transfer calculation.
DT_RHEOLOGY = 50.0              !   [seconds] default = -1.0
                                ! The sub-cycling time step for iterating the rheology
                                ! and ice momentum equations. If DT_RHEOLOGY is negative,
                                ! the time step is set via NSTEPS_DYN.
SIS_THICKNESS_ADVECTION_SCHEME = "PCM" ! default = "UPWIND_2D"
                                ! The horizontal transport scheme for thickness:
                                !   UPWIND_2D - Non-directionally split upwind
                                !   PCM    - Directionally split peicewise constant
                                !   PLM    - Piecewise Linear Method
                                !   PPM:H3 - Piecewise Parabolic Method (Huyhn 3rd order)
SIS_CONTINUITY_SCHEME = "PCM"   ! default = "UPWIND_2D"
                                ! The horizontal transport scheme used in continuity:
                                !   UPWIND_2D - Non-directionally split upwind
                                !   PCM       - Directionally split peicewise constant
                                !   PPM:C2PD  - Positive definite PPM with 2nd order edge values
                                !   PPM:C2MO  - Monotonic PPM with 2nd order edge values

! === module SIS_tracer_advect ===
SIS_TRACER_ADVECTION_SCHEME = "PPM:H3" ! default = "UPWIND_2D"
                                ! The horizontal transport scheme for tracers:
                                !   UPWIND_2D - Non-directionally split upwind
                                !   PCM    - Directionally split peicewise constant
                                !   PLM    - Piecewise Linear Method
                                !   PPM:H3 - Piecewise Parabolic Method (Huyhn 3rd order)

! === module SIS_tracer_registry ===

! === module SIS_sum_output ===
DOCUMENT_FILE = "SIS_parameter_doc" ! default = "MOM_parameter_doc"
                                ! The basename for files where run-time parameters, their
                                ! settings, units and defaults are documented. Blank will
                                ! disable all parameter documentation.
