! Blank file in which we can put "overrides" for parameters
BUOY_CONFIG = const
SENSIBLE_HEAT_FLUX = 100.
