! Parameters specific to the layer mode
#override MASS_WEIGHT_IN_PRESSURE_GRADIENT = False
NK = 63
ADJUST_THICKNESS = True
ABSORB_ALL_SW = True
LIMIT_BUFFER_DETRAIN = True
DEPTH_LIMIT_FLUXES = 0.1
ML_RESORT = True
ML_PRESORT_NK_CONV_ADJ = 4
CORRECT_ABSORPTION_DEPTH = True
DO_RIVERMIX = True
RIVERMIX_DEPTH = 40.0
BULKML_CONV_MOMENTUM_BUG = True
